*SPEF "ieee 1481-1999"
*DESIGN "dadda1"
*DATE "23:36:37 Thursday October 30, 2025"
*VENDOR "The OpenROAD Project"
*PROGRAM "OpenROAD"
*VERSION "v2.0-24548-g4fa65c3a24"
*DESIGN_FLOW "NAME_SCOPE LOCAL" "PIN_CAP NONE"
*DIVIDER /
*DELIMITER :
*BUS_DELIMITER []
*T_UNIT 1 NS
*C_UNIT 1 PF
*R_UNIT 1 OHM
*L_UNIT 1 HENRY

*NAME_MAP
*1 a[0]
*2 a[10]
*3 a[11]
*4 a[12]
*5 a[13]
*6 a[14]
*7 a[15]
*8 a[1]
*9 a[2]
*10 a[3]
*11 a[4]
*12 a[5]
*13 a[6]
*14 a[7]
*15 a[8]
*16 a[9]
*17 b[0]
*18 b[10]
*19 b[11]
*20 b[12]
*21 b[13]
*22 b[14]
*23 b[15]
*24 b[1]
*25 b[2]
*26 b[3]
*27 b[4]
*28 b[5]
*29 b[6]
*30 b[7]
*31 b[8]
*32 b[9]
*33 out[0]
*34 out[10]
*35 out[11]
*36 out[12]
*37 out[13]
*38 out[14]
*39 out[15]
*40 out[16]
*41 out[17]
*42 out[18]
*43 out[19]
*44 out[1]
*45 out[20]
*46 out[21]
*47 out[22]
*48 out[23]
*49 out[24]
*50 out[25]
*51 out[26]
*52 out[27]
*53 out[28]
*54 out[29]
*55 out[2]
*56 out[30]
*57 out[31]
*58 out[3]
*59 out[4]
*60 out[5]
*61 out[6]
*62 out[7]
*63 out[8]
*64 out[9]
*67 _000_
*68 _001_
*69 _002_
*70 _003_
*71 _004_
*72 _005_
*73 _006_
*74 _007_
*75 _008_
*76 _009_
*77 _010_
*78 _011_
*79 _012_
*80 _013_
*81 _014_
*82 _015_
*83 _016_
*84 _017_
*85 _018_
*86 _019_
*87 _020_
*88 _021_
*89 _022_
*90 _023_
*91 _024_
*92 _025_
*93 _026_
*94 _027_
*95 _028_
*96 _029_
*97 _030_
*98 _031_
*99 _032_
*100 _033_
*101 _034_
*102 _035_
*103 _036_
*104 _037_
*105 _038_
*106 _039_
*107 _040_
*108 _041_
*109 _042_
*110 _043_
*111 _044_
*112 _045_
*113 _046_
*114 _047_
*115 _048_
*116 _049_
*117 _050_
*118 _051_
*119 _052_
*120 _053_
*121 _054_
*122 _055_
*123 _056_
*124 _057_
*125 _058_
*126 _059_
*127 _060_
*128 _061_
*129 _062_
*130 _063_
*131 _064_
*132 _065_
*133 _066_
*134 _067_
*135 _068_
*136 _069_
*137 _070_
*138 _071_
*139 _072_
*140 _073_
*141 _074_
*142 _075_
*143 _076_
*144 _077_
*145 _078_
*146 _079_
*147 _080_
*148 _081_
*149 _082_
*150 _083_
*151 _084_
*152 _085_
*153 _086_
*154 _087_
*155 _088_
*156 _089_
*157 _090_
*158 _091_
*159 _092_
*160 _093_
*161 _094_
*162 _095_
*163 _096_
*164 _097_
*165 _098_
*166 _099_
*167 _100_
*168 _101_
*169 _102_
*170 _103_
*171 _104_
*172 _105_
*173 _106_
*174 c0[0]
*175 c0[10]
*176 c0[11]
*177 c0[1]
*178 c0[2]
*179 c0[3]
*180 c0[4]
*181 c0[5]
*182 c0[6]
*183 c0[7]
*184 c0[8]
*185 c0[9]
*186 c1[0]
*187 c1[10]
*188 c1[11]
*189 c1[12]
*190 c1[13]
*191 c1[14]
*192 c1[15]
*193 c1[16]
*194 c1[17]
*195 c1[18]
*196 c1[19]
*197 c1[1]
*198 c1[20]
*199 c1[21]
*200 c1[22]
*201 c1[23]
*202 c1[24]
*203 c1[25]
*204 c1[26]
*205 c1[27]
*206 c1[28]
*207 c1[29]
*208 c1[2]
*209 c1[30]
*210 c1[31]
*211 c1[32]
*212 c1[33]
*213 c1[34]
*214 c1[35]
*215 c1[36]
*216 c1[37]
*217 c1[38]
*218 c1[39]
*219 c1[3]
*220 c1[40]
*221 c1[41]
*222 c1[42]
*223 c1[43]
*224 c1[4]
*225 c1[5]
*226 c1[6]
*227 c1[7]
*228 c1[8]
*229 c1[9]
*230 c2[0]
*231 c2[10]
*232 c2[11]
*233 c2[12]
*234 c2[13]
*235 c2[14]
*236 c2[15]
*237 c2[16]
*238 c2[17]
*239 c2[18]
*240 c2[19]
*241 c2[1]
*242 c2[20]
*243 c2[21]
*244 c2[22]
*245 c2[23]
*246 c2[24]
*247 c2[25]
*248 c2[26]
*249 c2[27]
*250 c2[28]
*251 c2[29]
*252 c2[2]
*253 c2[30]
*254 c2[31]
*255 c2[32]
*256 c2[33]
*257 c2[34]
*258 c2[35]
*259 c2[36]
*260 c2[37]
*261 c2[38]
*262 c2[39]
*263 c2[3]
*264 c2[40]
*265 c2[41]
*266 c2[42]
*267 c2[43]
*268 c2[44]
*269 c2[45]
*270 c2[46]
*271 c2[47]
*272 c2[48]
*273 c2[49]
*274 c2[4]
*275 c2[50]
*276 c2[51]
*277 c2[52]
*278 c2[53]
*279 c2[5]
*280 c2[6]
*281 c2[7]
*282 c2[8]
*283 c2[9]
*284 c3[0]
*285 c3[10]
*286 c3[11]
*287 c3[12]
*288 c3[13]
*289 c3[14]
*290 c3[15]
*291 c3[16]
*292 c3[17]
*293 c3[18]
*294 c3[19]
*295 c3[1]
*296 c3[20]
*297 c3[21]
*298 c3[22]
*299 c3[23]
*300 c3[24]
*301 c3[25]
*302 c3[26]
*303 c3[27]
*304 c3[28]
*305 c3[29]
*306 c3[2]
*307 c3[30]
*308 c3[31]
*309 c3[32]
*310 c3[33]
*311 c3[34]
*312 c3[35]
*313 c3[36]
*314 c3[37]
*315 c3[38]
*316 c3[39]
*317 c3[3]
*318 c3[40]
*319 c3[41]
*320 c3[42]
*321 c3[43]
*322 c3[44]
*323 c3[45]
*324 c3[4]
*325 c3[5]
*326 c3[6]
*327 c3[7]
*328 c3[8]
*329 c3[9]
*330 c4[0]
*331 c4[10]
*332 c4[11]
*333 c4[12]
*334 c4[13]
*335 c4[14]
*336 c4[15]
*337 c4[16]
*338 c4[17]
*339 c4[18]
*340 c4[19]
*341 c4[1]
*342 c4[20]
*343 c4[21]
*344 c4[22]
*345 c4[23]
*346 c4[24]
*347 c4[25]
*348 c4[2]
*349 c4[3]
*350 c4[4]
*351 c4[5]
*352 c4[6]
*353 c4[7]
*354 c4[8]
*355 c4[9]
*356 c5[0]
*357 c5[10]
*358 c5[11]
*359 c5[12]
*360 c5[13]
*361 c5[14]
*362 c5[15]
*363 c5[16]
*364 c5[17]
*365 c5[18]
*366 c5[19]
*367 c5[1]
*368 c5[20]
*369 c5[21]
*370 c5[22]
*371 c5[23]
*372 c5[24]
*373 c5[25]
*374 c5[26]
*375 c5[27]
*376 c5[2]
*377 c5[3]
*378 c5[4]
*379 c5[5]
*380 c5[6]
*381 c5[7]
*382 c5[8]
*383 c5[9]
*384 finaladder32bit/Cout
*385 finaladder32bit/ksa32/_000_
*386 finaladder32bit/ksa32/_001_
*387 finaladder32bit/ksa32/_002_
*388 finaladder32bit/ksa32/_003_
*389 finaladder32bit/ksa32/_004_
*390 finaladder32bit/ksa32/_005_
*391 finaladder32bit/ksa32/_006_
*392 finaladder32bit/ksa32/_007_
*393 finaladder32bit/ksa32/_008_
*394 finaladder32bit/ksa32/_009_
*395 finaladder32bit/ksa32/_010_
*396 finaladder32bit/ksa32/_011_
*397 finaladder32bit/ksa32/_012_
*398 finaladder32bit/ksa32/_013_
*399 finaladder32bit/ksa32/_014_
*400 finaladder32bit/ksa32/_015_
*401 finaladder32bit/ksa32/_016_
*402 finaladder32bit/ksa32/_017_
*403 finaladder32bit/ksa32/_018_
*404 finaladder32bit/ksa32/_019_
*405 finaladder32bit/ksa32/_020_
*406 finaladder32bit/ksa32/_021_
*407 finaladder32bit/ksa32/_022_
*408 finaladder32bit/ksa32/_023_
*409 finaladder32bit/ksa32/_024_
*410 finaladder32bit/ksa32/_025_
*411 finaladder32bit/ksa32/_026_
*412 finaladder32bit/ksa32/_027_
*413 finaladder32bit/ksa32/_028_
*414 finaladder32bit/ksa32/_029_
*415 finaladder32bit/ksa32/_030_
*416 finaladder32bit/ksa32/_031_
*417 finaladder32bit/ksa32/_032_
*418 finaladder32bit/ksa32/_033_
*419 finaladder32bit/ksa32/_034_
*420 finaladder32bit/ksa32/_035_
*421 finaladder32bit/ksa32/_036_
*422 finaladder32bit/ksa32/_037_
*423 finaladder32bit/ksa32/_038_
*424 finaladder32bit/ksa32/_039_
*425 finaladder32bit/ksa32/_040_
*426 finaladder32bit/ksa32/_041_
*427 finaladder32bit/ksa32/_042_
*428 finaladder32bit/ksa32/_043_
*429 finaladder32bit/ksa32/_044_
*430 finaladder32bit/ksa32/_045_
*431 finaladder32bit/ksa32/_046_
*432 finaladder32bit/ksa32/_047_
*433 finaladder32bit/ksa32/_048_
*434 finaladder32bit/ksa32/_049_
*435 finaladder32bit/ksa32/_050_
*436 finaladder32bit/ksa32/_051_
*437 finaladder32bit/ksa32/_052_
*438 finaladder32bit/ksa32/_053_
*439 finaladder32bit/ksa32/_054_
*440 finaladder32bit/ksa32/_055_
*441 finaladder32bit/ksa32/_056_
*442 finaladder32bit/ksa32/_057_
*443 finaladder32bit/ksa32/_058_
*444 finaladder32bit/ksa32/_059_
*445 finaladder32bit/ksa32/_060_
*446 finaladder32bit/ksa32/_061_
*447 finaladder32bit/ksa32/_062_
*448 finaladder32bit/ksa32/_063_
*449 finaladder32bit/ksa32/_064_
*450 finaladder32bit/ksa32/_065_
*451 finaladder32bit/ksa32/_066_
*452 finaladder32bit/ksa32/_067_
*453 finaladder32bit/ksa32/_068_
*454 finaladder32bit/ksa32/_069_
*455 finaladder32bit/ksa32/_070_
*456 finaladder32bit/ksa32/_071_
*457 finaladder32bit/ksa32/_072_
*458 finaladder32bit/ksa32/_073_
*459 finaladder32bit/ksa32/_074_
*460 finaladder32bit/ksa32/_075_
*461 finaladder32bit/ksa32/_076_
*462 finaladder32bit/ksa32/_077_
*463 finaladder32bit/ksa32/_078_
*464 finaladder32bit/ksa32/_079_
*465 finaladder32bit/ksa32/_080_
*466 finaladder32bit/ksa32/_081_
*467 finaladder32bit/ksa32/_082_
*468 finaladder32bit/ksa32/_083_
*469 finaladder32bit/ksa32/_084_
*470 finaladder32bit/ksa32/_085_
*471 finaladder32bit/ksa32/_086_
*472 finaladder32bit/ksa32/_087_
*473 finaladder32bit/ksa32/_088_
*474 finaladder32bit/ksa32/_089_
*475 finaladder32bit/ksa32/_090_
*476 finaladder32bit/ksa32/_091_
*477 finaladder32bit/ksa32/_092_
*478 finaladder32bit/ksa32/_093_
*479 finaladder32bit/ksa32/_094_
*480 finaladder32bit/ksa32/_095_
*481 finaladder32bit/ksa32/_096_
*482 finaladder32bit/ksa32/_097_
*483 finaladder32bit/ksa32/_098_
*484 finaladder32bit/ksa32/_099_
*485 finaladder32bit/ksa32/_100_
*486 finaladder32bit/ksa32/_101_
*487 finaladder32bit/ksa32/_102_
*488 finaladder32bit/ksa32/_103_
*489 finaladder32bit/ksa32/_104_
*490 finaladder32bit/ksa32/_105_
*491 finaladder32bit/ksa32/_106_
*492 finaladder32bit/ksa32/_107_
*493 finaladder32bit/ksa32/_108_
*494 finaladder32bit/ksa32/_109_
*495 finaladder32bit/ksa32/_110_
*496 finaladder32bit/ksa32/_111_
*497 finaladder32bit/ksa32/_112_
*498 finaladder32bit/ksa32/_113_
*499 finaladder32bit/ksa32/_114_
*500 finaladder32bit/ksa32/_115_
*501 finaladder32bit/ksa32/_116_
*502 finaladder32bit/ksa32/_117_
*503 finaladder32bit/ksa32/_118_
*504 finaladder32bit/ksa32/_119_
*505 finaladder32bit/ksa32/_120_
*506 finaladder32bit/ksa32/_121_
*507 finaladder32bit/ksa32/_122_
*508 finaladder32bit/ksa32/_123_
*509 finaladder32bit/ksa32/_124_
*510 finaladder32bit/ksa32/_125_
*511 finaladder32bit/ksa32/_126_
*512 finaladder32bit/ksa32/_127_
*513 finaladder32bit/ksa32/_128_
*514 finaladder32bit/ksa32/_129_
*515 finaladder32bit/ksa32/_130_
*516 finaladder32bit/ksa32/_131_
*517 finaladder32bit/ksa32/_132_
*518 finaladder32bit/ksa32/_133_
*519 finaladder32bit/ksa32/_134_
*520 finaladder32bit/ksa32/_135_
*521 finaladder32bit/ksa32/_136_
*522 finaladder32bit/ksa32/_137_
*523 finaladder32bit/ksa32/_138_
*524 finaladder32bit/ksa32/_139_
*525 finaladder32bit/ksa32/_140_
*526 finaladder32bit/ksa32/_141_
*527 finaladder32bit/ksa32/_142_
*528 finaladder32bit/ksa32/_143_
*529 finaladder32bit/ksa32/_144_
*530 finaladder32bit/ksa32/_145_
*531 finaladder32bit/ksa32/_146_
*532 finaladder32bit/ksa32/_147_
*533 finaladder32bit/ksa32/_148_
*534 finaladder32bit/ksa32/_149_
*535 finaladder32bit/ksa32/_150_
*536 finaladder32bit/ksa32/_151_
*537 finaladder32bit/ksa32/_152_
*538 finaladder32bit/ksa32/_153_
*539 finaladder32bit/ksa32/_154_
*540 finaladder32bit/ksa32/_155_
*541 finaladder32bit/ksa32/_156_
*542 finaladder32bit/ksa32/_157_
*543 finaladder32bit/ksa32/_158_
*544 finaladder32bit/ksa32/_159_
*545 finaladder32bit/ksa32/_160_
*546 finaladder32bit/ksa32/_161_
*547 finaladder32bit/ksa32/_162_
*548 lastadder/Cout
*549 lastadder/ksa32/_000_
*550 lastadder/ksa32/_001_
*551 lastadder/ksa32/_002_
*552 lastadder/ksa32/_003_
*553 lastadder/ksa32/_004_
*554 lastadder/ksa32/_005_
*555 lastadder/ksa32/_006_
*556 lastadder/ksa32/_007_
*557 lastadder/ksa32/_008_
*558 lastadder/ksa32/_009_
*559 lastadder/ksa32/_010_
*560 lastadder/ksa32/_011_
*561 lastadder/ksa32/_012_
*562 lastadder/ksa32/_013_
*563 lastadder/ksa32/_014_
*564 lastadder/ksa32/_015_
*565 lastadder/ksa32/_016_
*566 lastadder/ksa32/_017_
*567 lastadder/ksa32/_018_
*568 lastadder/ksa32/_019_
*569 lastadder/ksa32/_020_
*570 lastadder/ksa32/_021_
*571 lastadder/ksa32/_022_
*572 lastadder/ksa32/_023_
*573 lastadder/ksa32/_024_
*574 lastadder/ksa32/_025_
*575 lastadder/ksa32/_026_
*576 lastadder/ksa32/_027_
*577 lastadder/ksa32/_028_
*578 lastadder/ksa32/_029_
*579 lastadder/ksa32/_030_
*580 lastadder/ksa32/_031_
*581 lastadder/ksa32/_032_
*582 lastadder/ksa32/_033_
*583 lastadder/ksa32/_034_
*584 lastadder/ksa32/_035_
*585 lastadder/ksa32/_036_
*586 lastadder/ksa32/_037_
*587 lastadder/ksa32/_038_
*588 lastadder/ksa32/_039_
*589 lastadder/ksa32/_040_
*590 lastadder/ksa32/_041_
*591 lastadder/ksa32/_042_
*592 lastadder/ksa32/_043_
*593 lastadder/ksa32/_044_
*594 lastadder/ksa32/_045_
*595 lastadder/ksa32/_046_
*596 lastadder/ksa32/_047_
*597 lastadder/ksa32/_048_
*598 lastadder/ksa32/_049_
*599 lastadder/ksa32/_050_
*600 lastadder/ksa32/_051_
*601 lastadder/ksa32/_052_
*602 lastadder/ksa32/_053_
*603 lastadder/ksa32/_054_
*604 lastadder/ksa32/_055_
*605 lastadder/ksa32/_056_
*606 lastadder/ksa32/_057_
*607 lastadder/ksa32/_058_
*608 lastadder/ksa32/_059_
*609 lastadder/ksa32/_060_
*610 lastadder/ksa32/_061_
*611 lastadder/ksa32/_062_
*612 lastadder/ksa32/_063_
*613 lastadder/ksa32/_064_
*614 lastadder/ksa32/_065_
*615 lastadder/ksa32/_066_
*616 lastadder/ksa32/_067_
*617 lastadder/ksa32/_068_
*618 lastadder/ksa32/_069_
*619 lastadder/ksa32/_070_
*620 lastadder/ksa32/_071_
*621 lastadder/ksa32/_072_
*622 lastadder/ksa32/_073_
*623 lastadder/ksa32/_074_
*624 lastadder/ksa32/_075_
*625 lastadder/ksa32/_076_
*626 lastadder/ksa32/_077_
*627 lastadder/ksa32/_078_
*628 lastadder/ksa32/_079_
*629 lastadder/ksa32/_080_
*630 lastadder/ksa32/_081_
*631 lastadder/ksa32/_082_
*632 lastadder/ksa32/_083_
*633 lastadder/ksa32/_084_
*634 lastadder/ksa32/_085_
*635 lastadder/ksa32/_086_
*636 lastadder/ksa32/_087_
*637 lastadder/ksa32/_088_
*638 lastadder/ksa32/_089_
*639 lastadder/ksa32/_090_
*640 lastadder/ksa32/_091_
*641 lastadder/ksa32/_092_
*642 lastadder/ksa32/_093_
*643 lastadder/ksa32/_094_
*644 lastadder/ksa32/_095_
*645 lastadder/ksa32/_096_
*646 lastadder/ksa32/_097_
*647 lastadder/ksa32/_098_
*648 lastadder/ksa32/_099_
*649 lastadder/ksa32/_100_
*650 lastadder/ksa32/_101_
*651 lastadder/ksa32/_102_
*652 lastadder/ksa32/_103_
*653 lastadder/ksa32/_104_
*654 lastadder/ksa32/_105_
*655 lastadder/ksa32/_106_
*656 lastadder/ksa32/_107_
*657 lastadder/ksa32/_108_
*658 lastadder/ksa32/_109_
*659 lastadder/ksa32/_110_
*660 lastadder/ksa32/_111_
*661 lastadder/ksa32/_112_
*662 lastadder/ksa32/_113_
*663 lastadder/ksa32/_114_
*664 lastadder/ksa32/_115_
*665 lastadder/ksa32/_116_
*666 lastadder/ksa32/_117_
*667 lastadder/ksa32/_118_
*668 lastadder/ksa32/_119_
*669 lastadder/ksa32/_120_
*670 lastadder/ksa32/_121_
*671 lastadder/ksa32/_122_
*672 lastadder/ksa32/_123_
*673 lastadder/ksa32/_124_
*674 lastadder/ksa32/_125_
*675 lastadder/ksa32/_126_
*676 lastadder/ksa32/_127_
*677 lastadder/ksa32/_128_
*678 lastadder/ksa32/_129_
*679 lastadder/ksa32/_130_
*680 lastadder/ksa32/_131_
*681 lastadder/ksa32/_132_
*682 lastadder/ksa32/_133_
*683 lastadder/ksa32/_134_
*684 lastadder/ksa32/_135_
*685 lastadder/ksa32/_136_
*686 lastadder/ksa32/_137_
*687 lastadder/ksa32/_138_
*688 lastadder/ksa32/_139_
*689 lastadder/ksa32/_140_
*690 lastadder/ksa32/_141_
*691 lastadder/ksa32/_142_
*692 lastadder/ksa32/_143_
*693 lastadder/ksa32/_144_
*694 lastadder/ksa32/_145_
*695 lastadder/ksa32/_146_
*696 lastadder/ksa32/_147_
*697 lastadder/ksa32/_148_
*698 lastadder/ksa32/_149_
*699 lastadder/ksa32/_150_
*700 lastadder/ksa32/_151_
*701 lastadder/ksa32/_152_
*702 lastadder/ksa32/_153_
*703 lastadder/ksa32/_154_
*704 lastadder/ksa32/_155_
*705 lastadder/ksa32/_156_
*706 lastadder/ksa32/_157_
*707 lastadder/ksa32/_158_
*708 lastadder/ksa32/_159_
*709 lastadder/ksa32/_160_
*710 lastadder/ksa32/_161_
*711 lastadder/ksa32/_162_
*712 nextinp[0]
*713 nextinp[10]
*714 nextinp[11]
*715 nextinp[12]
*716 nextinp[13]
*717 nextinp[14]
*718 nextinp[15]
*719 nextinp[16]
*720 nextinp[17]
*721 nextinp[18]
*722 nextinp[19]
*723 nextinp[1]
*724 nextinp[20]
*725 nextinp[21]
*726 nextinp[22]
*727 nextinp[23]
*728 nextinp[24]
*729 nextinp[25]
*730 nextinp[26]
*731 nextinp[27]
*732 nextinp[28]
*733 nextinp[29]
*734 nextinp[2]
*735 nextinp[30]
*736 nextinp[31]
*737 nextinp[3]
*738 nextinp[4]
*739 nextinp[5]
*740 nextinp[6]
*741 nextinp[7]
*742 nextinp[8]
*743 nextinp[9]
*744 p\[0\][0]
*745 p\[0\][10]
*746 p\[0\][11]
*747 p\[0\][12]
*748 p\[0\][13]
*749 p\[0\][14]
*750 p\[0\][15]
*751 p\[0\][1]
*752 p\[0\][2]
*753 p\[0\][3]
*754 p\[0\][4]
*755 p\[0\][5]
*756 p\[0\][6]
*757 p\[0\][7]
*758 p\[0\][8]
*759 p\[0\][9]
*760 p\[10\][0]
*761 p\[10\][10]
*762 p\[10\][11]
*763 p\[10\][12]
*764 p\[10\][13]
*765 p\[10\][14]
*766 p\[10\][15]
*767 p\[10\][1]
*768 p\[10\][2]
*769 p\[10\][3]
*770 p\[10\][4]
*771 p\[10\][5]
*772 p\[10\][6]
*773 p\[10\][7]
*774 p\[10\][8]
*775 p\[10\][9]
*776 p\[11\][0]
*777 p\[11\][10]
*778 p\[11\][11]
*779 p\[11\][12]
*780 p\[11\][13]
*781 p\[11\][14]
*782 p\[11\][15]
*783 p\[11\][1]
*784 p\[11\][2]
*785 p\[11\][3]
*786 p\[11\][4]
*787 p\[11\][5]
*788 p\[11\][6]
*789 p\[11\][7]
*790 p\[11\][8]
*791 p\[11\][9]
*792 p\[12\][0]
*793 p\[12\][10]
*794 p\[12\][11]
*795 p\[12\][12]
*796 p\[12\][13]
*797 p\[12\][14]
*798 p\[12\][15]
*799 p\[12\][1]
*800 p\[12\][2]
*801 p\[12\][3]
*802 p\[12\][4]
*803 p\[12\][5]
*804 p\[12\][6]
*805 p\[12\][7]
*806 p\[12\][8]
*807 p\[12\][9]
*808 p\[13\][0]
*809 p\[13\][10]
*810 p\[13\][11]
*811 p\[13\][12]
*812 p\[13\][13]
*813 p\[13\][14]
*814 p\[13\][15]
*815 p\[13\][1]
*816 p\[13\][2]
*817 p\[13\][3]
*818 p\[13\][4]
*819 p\[13\][5]
*820 p\[13\][6]
*821 p\[13\][7]
*822 p\[13\][8]
*823 p\[13\][9]
*824 p\[14\][0]
*825 p\[14\][10]
*826 p\[14\][11]
*827 p\[14\][12]
*828 p\[14\][13]
*829 p\[14\][14]
*830 p\[14\][15]
*831 p\[14\][1]
*832 p\[14\][2]
*833 p\[14\][3]
*834 p\[14\][4]
*835 p\[14\][5]
*836 p\[14\][6]
*837 p\[14\][7]
*838 p\[14\][8]
*839 p\[14\][9]
*840 p\[15\][0]
*841 p\[15\][10]
*842 p\[15\][11]
*843 p\[15\][12]
*844 p\[15\][13]
*845 p\[15\][14]
*846 p\[15\][15]
*847 p\[15\][1]
*848 p\[15\][2]
*849 p\[15\][3]
*850 p\[15\][4]
*851 p\[15\][5]
*852 p\[15\][6]
*853 p\[15\][7]
*854 p\[15\][8]
*855 p\[15\][9]
*856 p\[1\][0]
*857 p\[1\][10]
*858 p\[1\][11]
*859 p\[1\][12]
*860 p\[1\][13]
*861 p\[1\][14]
*862 p\[1\][15]
*863 p\[1\][1]
*864 p\[1\][2]
*865 p\[1\][3]
*866 p\[1\][4]
*867 p\[1\][5]
*868 p\[1\][6]
*869 p\[1\][7]
*870 p\[1\][8]
*871 p\[1\][9]
*872 p\[2\][0]
*873 p\[2\][10]
*874 p\[2\][11]
*875 p\[2\][12]
*876 p\[2\][13]
*877 p\[2\][14]
*878 p\[2\][15]
*879 p\[2\][1]
*880 p\[2\][2]
*881 p\[2\][3]
*882 p\[2\][4]
*883 p\[2\][5]
*884 p\[2\][6]
*885 p\[2\][7]
*886 p\[2\][8]
*887 p\[2\][9]
*888 p\[3\][0]
*889 p\[3\][10]
*890 p\[3\][11]
*891 p\[3\][12]
*892 p\[3\][13]
*893 p\[3\][14]
*894 p\[3\][15]
*895 p\[3\][1]
*896 p\[3\][2]
*897 p\[3\][3]
*898 p\[3\][4]
*899 p\[3\][5]
*900 p\[3\][6]
*901 p\[3\][7]
*902 p\[3\][8]
*903 p\[3\][9]
*904 p\[4\][0]
*905 p\[4\][10]
*906 p\[4\][11]
*907 p\[4\][12]
*908 p\[4\][13]
*909 p\[4\][14]
*910 p\[4\][15]
*911 p\[4\][1]
*912 p\[4\][2]
*913 p\[4\][3]
*914 p\[4\][4]
*915 p\[4\][5]
*916 p\[4\][6]
*917 p\[4\][7]
*918 p\[4\][8]
*919 p\[4\][9]
*920 p\[5\][0]
*921 p\[5\][10]
*922 p\[5\][11]
*923 p\[5\][12]
*924 p\[5\][13]
*925 p\[5\][14]
*926 p\[5\][15]
*927 p\[5\][1]
*928 p\[5\][2]
*929 p\[5\][3]
*930 p\[5\][4]
*931 p\[5\][5]
*932 p\[5\][6]
*933 p\[5\][7]
*934 p\[5\][8]
*935 p\[5\][9]
*936 p\[6\][0]
*937 p\[6\][10]
*938 p\[6\][11]
*939 p\[6\][12]
*940 p\[6\][13]
*941 p\[6\][14]
*942 p\[6\][15]
*943 p\[6\][1]
*944 p\[6\][2]
*945 p\[6\][3]
*946 p\[6\][4]
*947 p\[6\][5]
*948 p\[6\][6]
*949 p\[6\][7]
*950 p\[6\][8]
*951 p\[6\][9]
*952 p\[7\][0]
*953 p\[7\][10]
*954 p\[7\][11]
*955 p\[7\][12]
*956 p\[7\][13]
*957 p\[7\][14]
*958 p\[7\][15]
*959 p\[7\][1]
*960 p\[7\][2]
*961 p\[7\][3]
*962 p\[7\][4]
*963 p\[7\][5]
*964 p\[7\][6]
*965 p\[7\][7]
*966 p\[7\][8]
*967 p\[7\][9]
*968 p\[8\][0]
*969 p\[8\][10]
*970 p\[8\][11]
*971 p\[8\][12]
*972 p\[8\][13]
*973 p\[8\][14]
*974 p\[8\][15]
*975 p\[8\][1]
*976 p\[8\][2]
*977 p\[8\][3]
*978 p\[8\][4]
*979 p\[8\][5]
*980 p\[8\][6]
*981 p\[8\][7]
*982 p\[8\][8]
*983 p\[8\][9]
*984 p\[9\][0]
*985 p\[9\][10]
*986 p\[9\][11]
*987 p\[9\][12]
*988 p\[9\][13]
*989 p\[9\][14]
*990 p\[9\][15]
*991 p\[9\][1]
*992 p\[9\][2]
*993 p\[9\][3]
*994 p\[9\][4]
*995 p\[9\][5]
*996 p\[9\][6]
*997 p\[9\][7]
*998 p\[9\][8]
*999 p\[9\][9]
*1000 s0[0]
*1001 s0[10]
*1002 s0[11]
*1003 s0[1]
*1004 s0[2]
*1005 s0[3]
*1006 s0[4]
*1007 s0[5]
*1008 s0[6]
*1009 s0[7]
*1010 s0[8]
*1011 s0[9]
*1012 s1[0]
*1013 s1[10]
*1014 s1[11]
*1015 s1[12]
*1016 s1[13]
*1017 s1[14]
*1018 s1[15]
*1019 s1[16]
*1020 s1[17]
*1021 s1[18]
*1022 s1[19]
*1023 s1[1]
*1024 s1[20]
*1025 s1[21]
*1026 s1[22]
*1027 s1[23]
*1028 s1[24]
*1029 s1[25]
*1030 s1[26]
*1031 s1[27]
*1032 s1[28]
*1033 s1[29]
*1034 s1[2]
*1035 s1[30]
*1036 s1[31]
*1037 s1[32]
*1038 s1[33]
*1039 s1[34]
*1040 s1[35]
*1041 s1[36]
*1042 s1[37]
*1043 s1[38]
*1044 s1[39]
*1045 s1[3]
*1046 s1[40]
*1047 s1[41]
*1048 s1[42]
*1049 s1[43]
*1050 s1[4]
*1051 s1[5]
*1052 s1[6]
*1053 s1[7]
*1054 s1[8]
*1055 s1[9]
*1056 s2[0]
*1057 s2[10]
*1058 s2[11]
*1059 s2[12]
*1060 s2[13]
*1061 s2[14]
*1062 s2[15]
*1063 s2[16]
*1064 s2[17]
*1065 s2[18]
*1066 s2[19]
*1067 s2[1]
*1068 s2[20]
*1069 s2[21]
*1070 s2[22]
*1071 s2[23]
*1072 s2[24]
*1073 s2[25]
*1074 s2[26]
*1075 s2[27]
*1076 s2[28]
*1077 s2[29]
*1078 s2[2]
*1079 s2[30]
*1080 s2[31]
*1081 s2[32]
*1082 s2[33]
*1083 s2[34]
*1084 s2[35]
*1085 s2[36]
*1086 s2[37]
*1087 s2[38]
*1088 s2[39]
*1089 s2[3]
*1090 s2[40]
*1091 s2[41]
*1092 s2[42]
*1093 s2[43]
*1094 s2[44]
*1095 s2[45]
*1096 s2[46]
*1097 s2[47]
*1098 s2[48]
*1099 s2[49]
*1100 s2[4]
*1101 s2[50]
*1102 s2[51]
*1103 s2[52]
*1104 s2[53]
*1105 s2[5]
*1106 s2[6]
*1107 s2[7]
*1108 s2[8]
*1109 s2[9]
*1110 s3[0]
*1111 s3[10]
*1112 s3[11]
*1113 s3[12]
*1114 s3[13]
*1115 s3[14]
*1116 s3[15]
*1117 s3[16]
*1118 s3[17]
*1119 s3[18]
*1120 s3[19]
*1121 s3[1]
*1122 s3[20]
*1123 s3[21]
*1124 s3[22]
*1125 s3[23]
*1126 s3[24]
*1127 s3[25]
*1128 s3[26]
*1129 s3[27]
*1130 s3[28]
*1131 s3[29]
*1132 s3[2]
*1133 s3[30]
*1134 s3[31]
*1135 s3[32]
*1136 s3[33]
*1137 s3[34]
*1138 s3[35]
*1139 s3[36]
*1140 s3[37]
*1141 s3[38]
*1142 s3[39]
*1143 s3[3]
*1144 s3[40]
*1145 s3[41]
*1146 s3[42]
*1147 s3[43]
*1148 s3[44]
*1149 s3[45]
*1150 s3[4]
*1151 s3[5]
*1152 s3[6]
*1153 s3[7]
*1154 s3[8]
*1155 s3[9]
*1156 s4[0]
*1157 s4[10]
*1158 s4[11]
*1159 s4[12]
*1160 s4[13]
*1161 s4[14]
*1162 s4[15]
*1163 s4[16]
*1164 s4[17]
*1165 s4[18]
*1166 s4[19]
*1167 s4[1]
*1168 s4[20]
*1169 s4[21]
*1170 s4[22]
*1171 s4[23]
*1172 s4[24]
*1173 s4[25]
*1174 s4[2]
*1175 s4[3]
*1176 s4[4]
*1177 s4[5]
*1178 s4[6]
*1179 s4[7]
*1180 s4[8]
*1181 s4[9]
*1182 s5[0]
*1183 s5[10]
*1184 s5[11]
*1185 s5[12]
*1186 s5[13]
*1187 s5[14]
*1188 s5[15]
*1189 s5[16]
*1190 s5[17]
*1191 s5[18]
*1192 s5[19]
*1193 s5[1]
*1194 s5[20]
*1195 s5[21]
*1196 s5[22]
*1197 s5[23]
*1198 s5[24]
*1199 s5[25]
*1200 s5[26]
*1201 s5[27]
*1202 s5[2]
*1203 s5[3]
*1204 s5[4]
*1205 s5[5]
*1206 s5[6]
*1207 s5[7]
*1208 s5[8]
*1209 s5[9]
*1210 s6[0]
*1211 s6[10]
*1212 s6[11]
*1213 s6[12]
*1214 s6[13]
*1215 s6[14]
*1216 s6[15]
*1217 s6[16]
*1218 s6[17]
*1219 s6[18]
*1220 s6[19]
*1221 s6[1]
*1222 s6[20]
*1223 s6[21]
*1224 s6[22]
*1225 s6[23]
*1226 s6[24]
*1227 s6[25]
*1228 s6[26]
*1229 s6[27]
*1230 s6[28]
*1231 s6[29]
*1232 s6[2]
*1233 s6[30]
*1234 s6[31]
*1235 s6[3]
*1236 s6[4]
*1237 s6[5]
*1238 s6[6]
*1239 s6[7]
*1240 s6[8]
*1241 s6[9]
*1242 sign
*1243 PHY_EDGE_ROW_0_Left_65
*1244 PHY_EDGE_ROW_0_Right_0
*1245 PHY_EDGE_ROW_10_Left_75
*1246 PHY_EDGE_ROW_10_Right_10
*1247 PHY_EDGE_ROW_11_Left_76
*1248 PHY_EDGE_ROW_11_Right_11
*1249 PHY_EDGE_ROW_12_Left_77
*1250 PHY_EDGE_ROW_12_Right_12
*1251 PHY_EDGE_ROW_13_Left_78
*1252 PHY_EDGE_ROW_13_Right_13
*1253 PHY_EDGE_ROW_14_Left_79
*1254 PHY_EDGE_ROW_14_Right_14
*1255 PHY_EDGE_ROW_15_Left_80
*1256 PHY_EDGE_ROW_15_Right_15
*1257 PHY_EDGE_ROW_16_Left_81
*1258 PHY_EDGE_ROW_16_Right_16
*1259 PHY_EDGE_ROW_17_Left_82
*1260 PHY_EDGE_ROW_17_Right_17
*1261 PHY_EDGE_ROW_18_Left_83
*1262 PHY_EDGE_ROW_18_Right_18
*1263 PHY_EDGE_ROW_19_Left_84
*1264 PHY_EDGE_ROW_19_Right_19
*1265 PHY_EDGE_ROW_1_Left_66
*1266 PHY_EDGE_ROW_1_Right_1
*1267 PHY_EDGE_ROW_20_Left_85
*1268 PHY_EDGE_ROW_20_Right_20
*1269 PHY_EDGE_ROW_21_Left_86
*1270 PHY_EDGE_ROW_21_Right_21
*1271 PHY_EDGE_ROW_22_Left_87
*1272 PHY_EDGE_ROW_22_Right_22
*1273 PHY_EDGE_ROW_23_Left_88
*1274 PHY_EDGE_ROW_23_Right_23
*1275 PHY_EDGE_ROW_24_Left_89
*1276 PHY_EDGE_ROW_24_Right_24
*1277 PHY_EDGE_ROW_25_Left_90
*1278 PHY_EDGE_ROW_25_Right_25
*1279 PHY_EDGE_ROW_26_Left_91
*1280 PHY_EDGE_ROW_26_Right_26
*1281 PHY_EDGE_ROW_27_Left_92
*1282 PHY_EDGE_ROW_27_Right_27
*1283 PHY_EDGE_ROW_28_Left_93
*1284 PHY_EDGE_ROW_28_Right_28
*1285 PHY_EDGE_ROW_29_Left_94
*1286 PHY_EDGE_ROW_29_Right_29
*1287 PHY_EDGE_ROW_2_Left_67
*1288 PHY_EDGE_ROW_2_Right_2
*1289 PHY_EDGE_ROW_30_Left_95
*1290 PHY_EDGE_ROW_30_Right_30
*1291 PHY_EDGE_ROW_31_Left_96
*1292 PHY_EDGE_ROW_31_Right_31
*1293 PHY_EDGE_ROW_32_Left_97
*1294 PHY_EDGE_ROW_32_Right_32
*1295 PHY_EDGE_ROW_33_Left_98
*1296 PHY_EDGE_ROW_33_Right_33
*1297 PHY_EDGE_ROW_34_Left_99
*1298 PHY_EDGE_ROW_34_Right_34
*1299 PHY_EDGE_ROW_35_Left_100
*1300 PHY_EDGE_ROW_35_Right_35
*1301 PHY_EDGE_ROW_36_Left_101
*1302 PHY_EDGE_ROW_36_Right_36
*1303 PHY_EDGE_ROW_37_Left_102
*1304 PHY_EDGE_ROW_37_Right_37
*1305 PHY_EDGE_ROW_38_Left_103
*1306 PHY_EDGE_ROW_38_Right_38
*1307 PHY_EDGE_ROW_39_Left_104
*1308 PHY_EDGE_ROW_39_Right_39
*1309 PHY_EDGE_ROW_3_Left_68
*1310 PHY_EDGE_ROW_3_Right_3
*1311 PHY_EDGE_ROW_40_Left_105
*1312 PHY_EDGE_ROW_40_Right_40
*1313 PHY_EDGE_ROW_41_Left_106
*1314 PHY_EDGE_ROW_41_Right_41
*1315 PHY_EDGE_ROW_42_Left_107
*1316 PHY_EDGE_ROW_42_Right_42
*1317 PHY_EDGE_ROW_43_Left_108
*1318 PHY_EDGE_ROW_43_Right_43
*1319 PHY_EDGE_ROW_44_Left_109
*1320 PHY_EDGE_ROW_44_Right_44
*1321 PHY_EDGE_ROW_45_Left_110
*1322 PHY_EDGE_ROW_45_Right_45
*1323 PHY_EDGE_ROW_46_Left_111
*1324 PHY_EDGE_ROW_46_Right_46
*1325 PHY_EDGE_ROW_47_Left_112
*1326 PHY_EDGE_ROW_47_Right_47
*1327 PHY_EDGE_ROW_48_Left_113
*1328 PHY_EDGE_ROW_48_Right_48
*1329 PHY_EDGE_ROW_49_Left_114
*1330 PHY_EDGE_ROW_49_Right_49
*1331 PHY_EDGE_ROW_4_Left_69
*1332 PHY_EDGE_ROW_4_Right_4
*1333 PHY_EDGE_ROW_50_Left_115
*1334 PHY_EDGE_ROW_50_Right_50
*1335 PHY_EDGE_ROW_51_Left_116
*1336 PHY_EDGE_ROW_51_Right_51
*1337 PHY_EDGE_ROW_52_Left_117
*1338 PHY_EDGE_ROW_52_Right_52
*1339 PHY_EDGE_ROW_53_Left_118
*1340 PHY_EDGE_ROW_53_Right_53
*1341 PHY_EDGE_ROW_54_Left_119
*1342 PHY_EDGE_ROW_54_Right_54
*1343 PHY_EDGE_ROW_55_Left_120
*1344 PHY_EDGE_ROW_55_Right_55
*1345 PHY_EDGE_ROW_56_Left_121
*1346 PHY_EDGE_ROW_56_Right_56
*1347 PHY_EDGE_ROW_57_Left_122
*1348 PHY_EDGE_ROW_57_Right_57
*1349 PHY_EDGE_ROW_58_Left_123
*1350 PHY_EDGE_ROW_58_Right_58
*1351 PHY_EDGE_ROW_59_Left_124
*1352 PHY_EDGE_ROW_59_Right_59
*1353 PHY_EDGE_ROW_5_Left_70
*1354 PHY_EDGE_ROW_5_Right_5
*1355 PHY_EDGE_ROW_60_Left_125
*1356 PHY_EDGE_ROW_60_Right_60
*1357 PHY_EDGE_ROW_61_Left_126
*1358 PHY_EDGE_ROW_61_Right_61
*1359 PHY_EDGE_ROW_62_Left_127
*1360 PHY_EDGE_ROW_62_Right_62
*1361 PHY_EDGE_ROW_63_Left_128
*1362 PHY_EDGE_ROW_63_Right_63
*1363 PHY_EDGE_ROW_64_Left_129
*1364 PHY_EDGE_ROW_64_Right_64
*1365 PHY_EDGE_ROW_6_Left_71
*1366 PHY_EDGE_ROW_6_Right_6
*1367 PHY_EDGE_ROW_7_Left_72
*1368 PHY_EDGE_ROW_7_Right_7
*1369 PHY_EDGE_ROW_8_Left_73
*1370 PHY_EDGE_ROW_8_Right_8
*1371 PHY_EDGE_ROW_9_Left_74
*1372 PHY_EDGE_ROW_9_Right_9
*1373 TAP_TAPCELL_ROW_0_130
*1374 TAP_TAPCELL_ROW_0_131
*1375 TAP_TAPCELL_ROW_0_132
*1376 TAP_TAPCELL_ROW_0_133
*1377 TAP_TAPCELL_ROW_0_134
*1378 TAP_TAPCELL_ROW_0_135
*1379 TAP_TAPCELL_ROW_0_136
*1380 TAP_TAPCELL_ROW_0_137
*1381 TAP_TAPCELL_ROW_0_138
*1382 TAP_TAPCELL_ROW_0_139
*1383 TAP_TAPCELL_ROW_0_140
*1384 TAP_TAPCELL_ROW_0_141
*1385 TAP_TAPCELL_ROW_0_142
*1386 TAP_TAPCELL_ROW_0_143
*1387 TAP_TAPCELL_ROW_0_144
*1388 TAP_TAPCELL_ROW_0_145
*1389 TAP_TAPCELL_ROW_0_146
*1390 TAP_TAPCELL_ROW_0_147
*1391 TAP_TAPCELL_ROW_10_229
*1392 TAP_TAPCELL_ROW_10_230
*1393 TAP_TAPCELL_ROW_10_231
*1394 TAP_TAPCELL_ROW_10_232
*1395 TAP_TAPCELL_ROW_10_233
*1396 TAP_TAPCELL_ROW_10_234
*1397 TAP_TAPCELL_ROW_10_235
*1398 TAP_TAPCELL_ROW_10_236
*1399 TAP_TAPCELL_ROW_10_237
*1400 TAP_TAPCELL_ROW_11_238
*1401 TAP_TAPCELL_ROW_11_239
*1402 TAP_TAPCELL_ROW_11_240
*1403 TAP_TAPCELL_ROW_11_241
*1404 TAP_TAPCELL_ROW_11_242
*1405 TAP_TAPCELL_ROW_11_243
*1406 TAP_TAPCELL_ROW_11_244
*1407 TAP_TAPCELL_ROW_11_245
*1408 TAP_TAPCELL_ROW_11_246
*1409 TAP_TAPCELL_ROW_12_247
*1410 TAP_TAPCELL_ROW_12_248
*1411 TAP_TAPCELL_ROW_12_249
*1412 TAP_TAPCELL_ROW_12_250
*1413 TAP_TAPCELL_ROW_12_251
*1414 TAP_TAPCELL_ROW_12_252
*1415 TAP_TAPCELL_ROW_12_253
*1416 TAP_TAPCELL_ROW_12_254
*1417 TAP_TAPCELL_ROW_12_255
*1418 TAP_TAPCELL_ROW_13_256
*1419 TAP_TAPCELL_ROW_13_257
*1420 TAP_TAPCELL_ROW_13_258
*1421 TAP_TAPCELL_ROW_13_259
*1422 TAP_TAPCELL_ROW_13_260
*1423 TAP_TAPCELL_ROW_13_261
*1424 TAP_TAPCELL_ROW_13_262
*1425 TAP_TAPCELL_ROW_13_263
*1426 TAP_TAPCELL_ROW_13_264
*1427 TAP_TAPCELL_ROW_14_265
*1428 TAP_TAPCELL_ROW_14_266
*1429 TAP_TAPCELL_ROW_14_267
*1430 TAP_TAPCELL_ROW_14_268
*1431 TAP_TAPCELL_ROW_14_269
*1432 TAP_TAPCELL_ROW_14_270
*1433 TAP_TAPCELL_ROW_14_271
*1434 TAP_TAPCELL_ROW_14_272
*1435 TAP_TAPCELL_ROW_14_273
*1436 TAP_TAPCELL_ROW_15_274
*1437 TAP_TAPCELL_ROW_15_275
*1438 TAP_TAPCELL_ROW_15_276
*1439 TAP_TAPCELL_ROW_15_277
*1440 TAP_TAPCELL_ROW_15_278
*1441 TAP_TAPCELL_ROW_15_279
*1442 TAP_TAPCELL_ROW_15_280
*1443 TAP_TAPCELL_ROW_15_281
*1444 TAP_TAPCELL_ROW_15_282
*1445 TAP_TAPCELL_ROW_16_283
*1446 TAP_TAPCELL_ROW_16_284
*1447 TAP_TAPCELL_ROW_16_285
*1448 TAP_TAPCELL_ROW_16_286
*1449 TAP_TAPCELL_ROW_16_287
*1450 TAP_TAPCELL_ROW_16_288
*1451 TAP_TAPCELL_ROW_16_289
*1452 TAP_TAPCELL_ROW_16_290
*1453 TAP_TAPCELL_ROW_16_291
*1454 TAP_TAPCELL_ROW_17_292
*1455 TAP_TAPCELL_ROW_17_293
*1456 TAP_TAPCELL_ROW_17_294
*1457 TAP_TAPCELL_ROW_17_295
*1458 TAP_TAPCELL_ROW_17_296
*1459 TAP_TAPCELL_ROW_17_297
*1460 TAP_TAPCELL_ROW_17_298
*1461 TAP_TAPCELL_ROW_17_299
*1462 TAP_TAPCELL_ROW_17_300
*1463 TAP_TAPCELL_ROW_18_301
*1464 TAP_TAPCELL_ROW_18_302
*1465 TAP_TAPCELL_ROW_18_303
*1466 TAP_TAPCELL_ROW_18_304
*1467 TAP_TAPCELL_ROW_18_305
*1468 TAP_TAPCELL_ROW_18_306
*1469 TAP_TAPCELL_ROW_18_307
*1470 TAP_TAPCELL_ROW_18_308
*1471 TAP_TAPCELL_ROW_18_309
*1472 TAP_TAPCELL_ROW_19_310
*1473 TAP_TAPCELL_ROW_19_311
*1474 TAP_TAPCELL_ROW_19_312
*1475 TAP_TAPCELL_ROW_19_313
*1476 TAP_TAPCELL_ROW_19_314
*1477 TAP_TAPCELL_ROW_19_315
*1478 TAP_TAPCELL_ROW_19_316
*1479 TAP_TAPCELL_ROW_19_317
*1480 TAP_TAPCELL_ROW_19_318
*1481 TAP_TAPCELL_ROW_1_148
*1482 TAP_TAPCELL_ROW_1_149
*1483 TAP_TAPCELL_ROW_1_150
*1484 TAP_TAPCELL_ROW_1_151
*1485 TAP_TAPCELL_ROW_1_152
*1486 TAP_TAPCELL_ROW_1_153
*1487 TAP_TAPCELL_ROW_1_154
*1488 TAP_TAPCELL_ROW_1_155
*1489 TAP_TAPCELL_ROW_1_156
*1490 TAP_TAPCELL_ROW_20_319
*1491 TAP_TAPCELL_ROW_20_320
*1492 TAP_TAPCELL_ROW_20_321
*1493 TAP_TAPCELL_ROW_20_322
*1494 TAP_TAPCELL_ROW_20_323
*1495 TAP_TAPCELL_ROW_20_324
*1496 TAP_TAPCELL_ROW_20_325
*1497 TAP_TAPCELL_ROW_20_326
*1498 TAP_TAPCELL_ROW_20_327
*1499 TAP_TAPCELL_ROW_21_328
*1500 TAP_TAPCELL_ROW_21_329
*1501 TAP_TAPCELL_ROW_21_330
*1502 TAP_TAPCELL_ROW_21_331
*1503 TAP_TAPCELL_ROW_21_332
*1504 TAP_TAPCELL_ROW_21_333
*1505 TAP_TAPCELL_ROW_21_334
*1506 TAP_TAPCELL_ROW_21_335
*1507 TAP_TAPCELL_ROW_21_336
*1508 TAP_TAPCELL_ROW_22_337
*1509 TAP_TAPCELL_ROW_22_338