*SPEF "ieee 1481-1999"
*DESIGN "vedic1"
*DATE "22:37:03 Thursday October 30, 2025"
*VENDOR "The OpenROAD Project"
*PROGRAM "OpenROAD"
*VERSION "v2.0-24548-g4fa65c3a24"
*DESIGN_FLOW "NAME_SCOPE LOCAL" "PIN_CAP NONE"
*DIVIDER /
*DELIMITER :
*BUS_DELIMITER []
*T_UNIT 1 NS
*C_UNIT 1 PF
*R_UNIT 1 OHM
*L_UNIT 1 HENRY

*NAME_MAP
*1 a[0]
*2 a[10]
*3 a[11]
*4 a[12]
*5 a[13]
*6 a[14]
*7 a[15]
*8 a[1]
*9 a[2]
*10 a[3]
*11 a[4]
*12 a[5]
*13 a[6]
*14 a[7]
*15 a[8]
*16 a[9]
*17 b[0]
*18 b[10]
*19 b[11]
*20 b[12]
*21 b[13]
*22 b[14]
*23 b[15]
*24 b[1]
*25 b[2]
*26 b[3]
*27 b[4]
*28 b[5]
*29 b[6]
*30 b[7]
*31 b[8]
*32 b[9]
*33 c[0]
*34 c[10]
*35 c[11]
*36 c[12]
*37 c[13]
*38 c[14]
*39 c[15]
*40 c[16]
*41 c[17]
*42 c[18]
*43 c[19]
*44 c[1]
*45 c[20]
*46 c[21]
*47 c[22]
*48 c[23]
*49 c[24]
*50 c[25]
*51 c[26]
*52 c[27]
*53 c[28]
*54 c[29]
*55 c[2]
*56 c[30]
*57 c[31]
*58 c[3]
*59 c[4]
*60 c[5]
*61 c[6]
*62 c[7]
*63 c[8]
*64 c[9]
*67 _000_
*68 _001_
*69 _002_
*70 _003_
*71 _004_
*72 _005_
*73 _006_
*74 _007_
*75 _008_
*76 _009_
*77 _010_
*78 _011_
*79 _012_
*80 _013_
*81 _014_
*82 _015_
*83 _016_
*84 _017_
*85 _018_
*86 _019_
*87 _020_
*88 _021_
*89 _022_
*90 _023_
*91 _024_
*92 _025_
*93 _026_
*94 _027_
*95 _028_
*96 _029_
*97 _030_
*98 _031_
*99 _032_
*100 _033_
*101 _034_
*102 _035_
*103 _036_
*104 _037_
*105 _038_
*106 _039_
*107 _040_
*108 _041_
*109 _042_
*110 _043_
*111 _044_
*112 _045_
*113 _046_
*114 _047_
*115 _048_
*116 _049_
*117 _050_
*118 _051_
*119 _052_
*120 _053_
*121 _054_
*122 _055_
*123 _056_
*124 _057_
*125 _058_
*126 _059_
*127 _060_
*128 _061_
*129 _062_
*130 _063_
*131 _064_
*132 _065_
*133 _066_
*134 _067_
*135 _068_
*136 _069_
*137 _070_
*138 _071_
*139 abs_a[10]
*140 abs_a[11]
*141 abs_a[12]
*142 abs_a[13]
*143 abs_a[14]
*144 abs_a[15]
*145 abs_a[1]
*146 abs_a[2]
*147 abs_a[3]
*148 abs_a[4]
*149 abs_a[5]
*150 abs_a[6]
*151 abs_a[7]
*152 abs_a[8]
*153 abs_a[9]
*154 abs_b[10]
*155 abs_b[11]
*156 abs_b[12]
*157 abs_b[13]
*158 abs_b[14]
*159 abs_b[15]
*160 abs_b[1]
*161 abs_b[2]
*162 abs_b[3]
*163 abs_b[4]
*164 abs_b[5]
*165 abs_b[6]
*166 abs_b[7]
*167 abs_b[8]
*168 abs_b[9]
*169 lastadder/Cout
*170 lastadder/ksa32/_000_
*171 lastadder/ksa32/_001_
*172 lastadder/ksa32/_002_
*173 lastadder/ksa32/_003_
*174 lastadder/ksa32/_004_
*175 lastadder/ksa32/_005_
*176 lastadder/ksa32/_006_
*177 lastadder/ksa32/_007_
*178 lastadder/ksa32/_008_
*179 lastadder/ksa32/_009_
*180 lastadder/ksa32/_010_
*181 lastadder/ksa32/_011_
*182 lastadder/ksa32/_012_
*183 lastadder/ksa32/_013_
*184 lastadder/ksa32/_014_
*185 lastadder/ksa32/_015_
*186 lastadder/ksa32/_016_
*187 lastadder/ksa32/_017_
*188 lastadder/ksa32/_018_
*189 lastadder/ksa32/_019_
*190 lastadder/ksa32/_020_
*191 lastadder/ksa32/_021_
*192 lastadder/ksa32/_022_
*193 lastadder/ksa32/_023_
*194 lastadder/ksa32/_024_
*195 lastadder/ksa32/_025_
*196 lastadder/ksa32/_026_
*197 lastadder/ksa32/_027_
*198 lastadder/ksa32/_028_
*199 lastadder/ksa32/_029_
*200 lastadder/ksa32/_030_
*201 lastadder/ksa32/_031_
*202 lastadder/ksa32/_032_
*203 lastadder/ksa32/_033_
*204 lastadder/ksa32/_034_
*205 lastadder/ksa32/_035_
*206 lastadder/ksa32/_036_
*207 lastadder/ksa32/_037_
*208 lastadder/ksa32/_038_
*209 lastadder/ksa32/_039_
*210 lastadder/ksa32/_040_
*211 lastadder/ksa32/_041_
*212 lastadder/ksa32/_042_
*213 lastadder/ksa32/_043_
*214 lastadder/ksa32/_044_
*215 lastadder/ksa32/_045_
*216 lastadder/ksa32/_046_
*217 lastadder/ksa32/_047_
*218 lastadder/ksa32/_048_
*219 lastadder/ksa32/_049_
*220 lastadder/ksa32/_050_
*221 lastadder/ksa32/_051_
*222 lastadder/ksa32/_052_
*223 lastadder/ksa32/_053_
*224 lastadder/ksa32/_054_
*225 lastadder/ksa32/_055_
*226 lastadder/ksa32/_056_
*227 lastadder/ksa32/_057_
*228 lastadder/ksa32/_058_
*229 lastadder/ksa32/_059_
*230 lastadder/ksa32/_060_
*231 lastadder/ksa32/_061_
*232 lastadder/ksa32/_062_
*233 lastadder/ksa32/_063_
*234 lastadder/ksa32/_064_
*235 lastadder/ksa32/_065_
*236 lastadder/ksa32/_066_
*237 lastadder/ksa32/_067_
*238 lastadder/ksa32/_068_
*239 lastadder/ksa32/_069_
*240 lastadder/ksa32/_070_
*241 lastadder/ksa32/_071_
*242 lastadder/ksa32/_072_
*243 lastadder/ksa32/_073_
*244 lastadder/ksa32/_074_
*245 lastadder/ksa32/_075_
*246 lastadder/ksa32/_076_
*247 lastadder/ksa32/_077_
*248 lastadder/ksa32/_078_
*249 lastadder/ksa32/_079_
*250 lastadder/ksa32/_080_
*251 lastadder/ksa32/_081_
*252 lastadder/ksa32/_082_
*253 lastadder/ksa32/_083_
*254 lastadder/ksa32/_084_
*255 lastadder/ksa32/_085_
*256 lastadder/ksa32/_086_
*257 lastadder/ksa32/_087_
*258 lastadder/ksa32/_088_
*259 lastadder/ksa32/_089_
*260 lastadder/ksa32/_090_
*261 lastadder/ksa32/_091_
*262 lastadder/ksa32/_092_
*263 lastadder/ksa32/_093_
*264 lastadder/ksa32/_094_
*265 lastadder/ksa32/_095_
*266 lastadder/ksa32/_096_
*267 lastadder/ksa32/_097_
*268 lastadder/ksa32/_098_
*269 lastadder/ksa32/_099_
*270 lastadder/ksa32/_100_
*271 lastadder/ksa32/_101_
*272 lastadder/ksa32/_102_
*273 lastadder/ksa32/_103_
*274 lastadder/ksa32/_104_
*275 lastadder/ksa32/_105_
*276 lastadder/ksa32/_106_
*277 lastadder/ksa32/_107_
*278 lastadder/ksa32/_108_
*279 lastadder/ksa32/_109_
*280 lastadder/ksa32/_110_
*281 lastadder/ksa32/_111_
*282 lastadder/ksa32/_112_
*283 lastadder/ksa32/_113_
*284 lastadder/ksa32/_114_
*285 lastadder/ksa32/_115_
*286 lastadder/ksa32/_116_
*287 lastadder/ksa32/_117_
*288 lastadder/ksa32/_118_
*289 lastadder/ksa32/_119_
*290 lastadder/ksa32/_120_
*291 lastadder/ksa32/_121_
*292 lastadder/ksa32/_122_
*293 lastadder/ksa32/_123_
*294 lastadder/ksa32/_124_
*295 lastadder/ksa32/_125_
*296 lastadder/ksa32/_126_
*297 lastadder/ksa32/_127_
*298 lastadder/ksa32/_128_
*299 lastadder/ksa32/_129_
*300 lastadder/ksa32/_130_
*301 lastadder/ksa32/_131_
*302 lastadder/ksa32/_132_
*303 lastadder/ksa32/_133_
*304 lastadder/ksa32/_134_
*305 lastadder/ksa32/_135_
*306 lastadder/ksa32/_136_
*307 lastadder/ksa32/_137_
*308 lastadder/ksa32/_138_
*309 lastadder/ksa32/_139_
*310 lastadder/ksa32/_140_
*311 lastadder/ksa32/_141_
*312 lastadder/ksa32/_142_
*313 lastadder/ksa32/_143_
*314 lastadder/ksa32/_144_
*315 lastadder/ksa32/_145_
*316 lastadder/ksa32/_146_
*317 lastadder/ksa32/_147_
*318 lastadder/ksa32/_148_
*319 lastadder/ksa32/_149_
*320 lastadder/ksa32/_150_
*321 lastadder/ksa32/_151_
*322 lastadder/ksa32/_152_
*323 lastadder/ksa32/_153_
*324 lastadder/ksa32/_154_
*325 lastadder/ksa32/_155_
*326 lastadder/ksa32/_156_
*327 lastadder/ksa32/_157_
*328 lastadder/ksa32/_158_
*329 lastadder/ksa32/_159_
*330 lastadder/ksa32/_160_
*331 lastadder/ksa32/_161_
*332 lastadder/ksa32/_162_
*333 nextinp[0]
*334 nextinp[10]
*335 nextinp[11]
*336 nextinp[12]
*337 nextinp[13]
*338 nextinp[14]
*339 nextinp[15]
*340 nextinp[16]
*341 nextinp[17]
*342 nextinp[18]
*343 nextinp[19]
*344 nextinp[1]
*345 nextinp[20]
*346 nextinp[21]
*347 nextinp[22]
*348 nextinp[23]
*349 nextinp[24]
*350 nextinp[25]
*351 nextinp[26]
*352 nextinp[27]
*353 nextinp[28]
*354 nextinp[29]
*355 nextinp[2]
*356 nextinp[30]
*357 nextinp[31]
*358 nextinp[3]
*359 nextinp[4]
*360 nextinp[5]
*361 nextinp[6]
*362 nextinp[7]
*363 nextinp[8]
*364 nextinp[9]
*365 sign
*366 unsign[0]
*367 unsign[10]
*368 unsign[11]
*369 unsign[12]
*370 unsign[13]
*371 unsign[14]
*372 unsign[15]
*373 unsign[16]
*374 unsign[17]
*375 unsign[18]
*376 unsign[19]
*377 unsign[1]
*378 unsign[20]
*379 unsign[21]
*380 unsign[22]
*381 unsign[23]
*382 unsign[24]
*383 unsign[25]
*384 unsign[26]
*385 unsign[27]
*386 unsign[28]
*387 unsign[29]
*388 unsign[2]
*389 unsign[30]
*390 unsign[31]
*391 unsign[3]
*392 unsign[4]
*393 unsign[5]
*394 unsign[6]
*395 unsign[7]
*396 unsign[8]
*397 unsign[9]
*398 v0/_00_
*399 v0/_01_
*400 v0/_02_
*401 v0/_03_
*402 v0/_04_
*403 v0/_05_
*404 v0/_06_
*405 v0/_07_
*406 v0/_08_
*407 v0/_09_
*408 v0/_10_
*409 v0/_11_
*410 v0/_12_
*411 v0/_13_
*412 v0/_14_
*413 v0/_15_
*414 v0/_16_
*415 v0/_17_
*416 v0/_18_
*417 v0/_19_
*418 v0/_20_
*419 v0/_21_
*420 v0/_22_
*421 v0/_23_
*422 v0/_24_
*423 v0/_25_
*424 v0/_26_
*425 v0/_27_
*426 v0/_28_
*427 v0/_29_
*428 v0/_30_
*429 v0/_31_
*430 v0/_32_
*431 v0/_33_
*432 v0/_34_
*433 v0/q0[10]
*434 v0/q0[11]
*435 v0/q0[12]
*436 v0/q0[13]
*437 v0/q0[14]
*438 v0/q0[15]
*439 v0/q0[8]
*440 v0/q0[9]
*441 v0/q1[0]
*442 v0/q1[10]
*443 v0/q1[11]
*444 v0/q1[12]
*445 v0/q1[13]
*446 v0/q1[14]
*447 v0/q1[15]
*448 v0/q1[1]
*449 v0/q1[2]
*450 v0/q1[3]
*451 v0/q1[4]
*452 v0/q1[5]
*453 v0/q1[6]
*454 v0/q1[7]
*455 v0/q1[8]
*456 v0/q1[9]
*457 v0/q2[0]
*458 v0/q2[10]
*459 v0/q2[11]
*460 v0/q2[12]
*461 v0/q2[13]
*462 v0/q2[14]
*463 v0/q2[15]
*464 v0/q2[1]
*465 v0/q2[2]
*466 v0/q2[3]
*467 v0/q2[4]
*468 v0/q2[5]
*469 v0/q2[6]
*470 v0/q2[7]
*471 v0/q2[8]
*472 v0/q2[9]
*473 v0/q3[0]
*474 v0/q3[10]
*475 v0/q3[11]
*476 v0/q3[12]
*477 v0/q3[13]
*478 v0/q3[14]
*479 v0/q3[15]
*480 v0/q3[1]
*481 v0/q3[2]
*482 v0/q3[3]
*483 v0/q3[4]
*484 v0/q3[5]
*485 v0/q3[6]
*486 v0/q3[7]
*487 v0/q3[8]
*488 v0/q3[9]
*489 v0/q4[0]
*490 v0/q4[10]
*491 v0/q4[11]
*492 v0/q4[12]
*493 v0/q4[13]
*494 v0/q4[14]
*495 v0/q4[15]
*496 v0/q4[1]
*497 v0/q4[2]
*498 v0/q4[3]
*499 v0/q4[4]
*500 v0/q4[5]
*501 v0/q4[6]
*502 v0/q4[7]
*503 v0/q4[8]
*504 v0/q4[9]
*505 v0/q5[0]
*506 v0/q5[10]
*507 v0/q5[11]
*508 v0/q5[12]
*509 v0/q5[13]
*510 v0/q5[14]
*511 v0/q5[15]
*512 v0/q5[16]
*513 v0/q5[17]
*514 v0/q5[18]
*515 v0/q5[19]
*516 v0/q5[1]
*517 v0/q5[20]
*518 v0/q5[21]
*519 v0/q5[22]
*520 v0/q5[23]
*521 v0/q5[2]
*522 v0/q5[3]
*523 v0/q5[4]
*524 v0/q5[5]
*525 v0/q5[6]
*526 v0/q5[7]
*527 v0/q5[8]
*528 v0/q5[9]
*529 v0/z1/_00_
*530 v0/z1/_01_
*531 v0/z1/_02_
*532 v0/z1/_03_
*533 v0/z1/_04_
*534 v0/z1/_05_
*535 v0/z1/_06_
*536 v0/z1/_07_
*537 v0/z1/_08_
*538 v0/z1/_09_
*539 v0/z1/_10_
*540 v0/z1/_11_
*541 v0/z1/_12_
*542 v0/z1/_13_
*543 v0/z1/_14_
*544 v0/z1/_15_
*545 v0/z1/_16_
*546 v0/z1/_17_
*547 v0/z1/_18_
*548 v0/z1/q0[4]
*549 v0/z1/q0[5]
*550 v0/z1/q0[6]
*551 v0/z1/q0[7]
*552 v0/z1/q1[0]
*553 v0/z1/q1[1]
*554 v0/z1/q1[2]
*555 v0/z1/q1[3]
*556 v0/z1/q1[4]
*557 v0/z1/q1[5]
*558 v0/z1/q1[6]
*559 v0/z1/q1[7]
*560 v0/z1/q2[0]
*561 v0/z1/q2[1]
*562 v0/z1/q2[2]
*563 v0/z1/q2[3]
*564 v0/z1/q2[4]
*565 v0/z1/q2[5]
*566 v0/z1/q2[6]
*567 v0/z1/q2[7]
*568 v0/z1/q3[0]
*569 v0/z1/q3[1]
*570 v0/z1/q3[2]
*571 v0/z1/q3[3]
*572 v0/z1/q3[4]
*573 v0/z1/q3[5]
*574 v0/z1/q3[6]
*575 v0/z1/q3[7]
*576 v0/z1/q4[0]
*577 v0/z1/q4[1]
*578 v0/z1/q4[2]
*579 v0/z1/q4[3]
*580 v0/z1/q4[4]
*581 v0/z1/q4[5]
*582 v0/z1/q4[6]
*583 v0/z1/q4[7]
*584 v0/z1/q5[0]
*585 v0/z1/q5[10]
*586 v0/z1/q5[11]
*587 v0/z1/q5[1]
*588 v0/z1/q5[2]
*589 v0/z1/q5[3]
*590 v0/z1/q5[4]
*591 v0/z1/q5[5]
*592 v0/z1/q5[6]
*593 v0/z1/q5[7]
*594 v0/z1/q5[8]
*595 v0/z1/q5[9]
*596 v0/z1/z1/_00_
*597 v0/z1/z1/_01_
*598 v0/z1/z1/_02_
*599 v0/z1/z1/_03_
*600 v0/z1/z1/_04_
*601 v0/z1/z1/_05_
*602 v0/z1/z1/_06_
*603 v0/z1/z1/_07_
*604 v0/z1/z1/_08_
*605 v0/z1/z1/_09_
*606 v0/z1/z1/_10_
*607 v0/z1/z1/q0[2]
*608 v0/z1/z1/q0[3]
*609 v0/z1/z1/q1[0]
*610 v0/z1/z1/q1[1]
*611 v0/z1/z1/q1[2]
*612 v0/z1/z1/q1[3]
*613 v0/z1/z1/q2[0]
*614 v0/z1/z1/q2[1]
*615 v0/z1/z1/q2[2]
*616 v0/z1/z1/q2[3]
*617 v0/z1/z1/q3[0]
*618 v0/z1/z1/q3[1]
*619 v0/z1/z1/q3[2]
*620 v0/z1/z1/q3[3]
*621 v0/z1/z1/q4[0]
*622 v0/z1/z1/q4[1]
*623 v0/z1/z1/q4[2]
*624 v0/z1/z1/q4[3]
*625 v0/z1/z1/q5[0]
*626 v0/z1/z1/q5[1]
*627 v0/z1/z1/q5[2]
*628 v0/z1/z1/q5[3]
*629 v0/z1/z1/q5[4]
*630 v0/z1/z1/q5[5]
*631 v0/z1/z1/z1/temp[0]
*632 v0/z1/z1/z1/temp[1]
*633 v0/z1/z1/z1/temp[2]
*634 v0/z1/z1/z1/temp[3]
*635 v0/z1/z1/z2/temp[0]
*636 v0/z1/z1/z2/temp[1]
*637 v0/z1/z1/z2/temp[2]
*638 v0/z1/z1/z2/temp[3]
*639 v0/z1/z1/z3/temp[0]
*640 v0/z1/z1/z3/temp[1]
*641 v0/z1/z1/z3/temp[2]
*642 v0/z1/z1/z3/temp[3]
*643 v0/z1/z1/z4/temp[0]
*644 v0/z1/z1/z4/temp[1]
*645 v0/z1/z1/z4/temp[2]
*646 v0/z1/z1/z4/temp[3]
*647 v0/z1/z1/z5/Cout
*648 v0/z1/z1/z5/_00_
*649 v0/z1/z1/z5/_01_
*650 v0/z1/z1/z5/_02_
*651 v0/z1/z1/z5/_03_
*652 v0/z1/z1/z5/_04_
*653 v0/z1/z1/z5/_05_
*654 v0/z1/z1/z5/_06_
*655 v0/z1/z1/z6/Cout
*656 v0/z1/z1/z6/_00_
*657 v0/z1/z1/z6/_01_
*658 v0/z1/z1/z6/_02_
*659 v0/z1/z1/z6/_03_
*660 v0/z1/z1/z6/_04_
*661 v0/z1/z1/z6/_05_
*662 v0/z1/z1/z6/_06_
*663 v0/z1/z1/z6/_07_
*664 v0/z1/z1/z6/_08_
*665 v0/z1/z1/z6/_09_
*666 v0/z1/z1/z6/_10_
*667 v0/z1/z1/z6/_11_
*668 v0/z1/z1/z6/_12_
*669 v0/z1/z1/z6/_13_
*670 v0/z1/z1/z6/_14_
*671 v0/z1/z1/z6/_15_
*672 v0/z1/z1/z6/_16_
*673 v0/z1/z1/z6/_17_
*674 v0/z1/z1/z6/_18_
*675 v0/z1/z1/z7/Cout
*676 v0/z1/z1/z7/_00_
*677 v0/z1/z1/z7/_01_
*678 v0/z1/z1/z7/_02_
*679 v0/z1/z1/z7/_03_
*680 v0/z1/z1/z7/_04_
*681 v0/z1/z1/z7/_05_
*682 v0/z1/z1/z7/_06_
*683 v0/z1/z1/z7/_07_
*684 v0/z1/z1/z7/_08_
*685 v0/z1/z1/z7/_09_
*686 v0/z1/z1/z7/_10_
*687 v0/z1/z1/z7/_11_
*688 v0/z1/z1/z7/_12_
*689 v0/z1/z1/z7/_13_
*690 v0/z1/z1/z7/_14_
*691 v0/z1/z1/z7/_15_
*692 v0/z1/z1/z7/_16_
*693 v0/z1/z1/z7/_17_
*694 v0/z1/z1/z7/_18_
*695 v0/z1/z2/_00_
*696 v0/z1/z2/_01_
*697 v0/z1/z2/_02_
*698 v0/z1/z2/_03_
*699 v0/z1/z2/_04_
*700 v0/z1/z2/_05_
*701 v0/z1/z2/_06_
*702 v0/z1/z2/_07_
*703 v0/z1/z2/_08_
*704 v0/z1/z2/_09_
*705 v0/z1/z2/_10_
*706 v0/z1/z2/q0[2]
*707 v0/z1/z2/q0[3]
*708 v0/z1/z2/q1[0]
*709 v0/z1/z2/q1[1]
*710 v0/z1/z2/q1[2]
*711 v0/z1/z2/q1[3]
*712 v0/z1/z2/q2[0]
*713 v0/z1/z2/q2[1]
*714 v0/z1/z2/q2[2]
*715 v0/z1/z2/q2[3]
*716 v0/z1/z2/q3[0]
*717 v0/z1/z2/q3[1]
*718 v0/z1/z2/q3[2]
*719 v0/z1/z2/q3[3]
*720 v0/z1/z2/q4[0]
*721 v0/z1/z2/q4[1]
*722 v0/z1/z2/q4[2]
*723 v0/z1/z2/q4[3]
*724 v0/z1/z2/q5[0]
*725 v0/z1/z2/q5[1]
*726 v0/z1/z2/q5[2]
*727 v0/z1/z2/q5[3]
*728 v0/z1/z2/q5[4]
*729 v0/z1/z2/q5[5]
*730 v0/z1/z2/z1/temp[0]
*731 v0/z1/z2/z1/temp[1]
*732 v0/z1/z2/z1/temp[2]
*733 v0/z1/z2/z1/temp[3]
*734 v0/z1/z2/z2/temp[0]
*735 v0/z1/z2/z2/temp[1]
*736 v0/z1/z2/z2/temp[2]
*737 v0/z1/z2/z2/temp[3]
*738 v0/z1/z2/z3/temp[0]
*739 v0/z1/z2/z3/temp[1]
*740 v0/z1/z2/z3/temp[2]
*741 v0/z1/z2/z3/temp[3]
*742 v0/z1/z2/z4/temp[0]
*743 v0/z1/z2/z4/temp[1]
*744 v0/z1/z2/z4/temp[2]
*745 v0/z1/z2/z4/temp[3]
*746 v0/z1/z2/z5/Cout
*747 v0/z1/z2/z5/_00_
*748 v0/z1/z2/z5/_01_
*749 v0/z1/z2/z5/_02_
*750 v0/z1/z2/z5/_03_
*751 v0/z1/z2/z5/_04_
*752 v0/z1/z2/z5/_05_
*753 v0/z1/z2/z5/_06_
*754 v0/z1/z2/z6/Cout
*755 v0/z1/z2/z6/_00_
*756 v0/z1/z2/z6/_01_
*757 v0/z1/z2/z6/_02_
*758 v0/z1/z2/z6/_03_
*759 v0/z1/z2/z6/_04_
*760 v0/z1/z2/z6/_05_
*761 v0/z1/z2/z6/_06_
*762 v0/z1/z2/z6/_07_
*763 v0/z1/z2/z6/_08_
*764 v0/z1/z2/z6/_09_
*765 v0/z1/z2/z6/_10_
*766 v0/z1/z2/z6/_11_
*767 v0/z1/z2/z6/_12_
*768 v0/z1/z2/z6/_13_
*769 v0/z1/z2/z6/_14_
*770 v0/z1/z2/z6/_15_
*771 v0/z1/z2/z6/_16_
*772 v0/z1/z2/z6/_17_
*773 v0/z1/z2/z6/_18_
*774 v0/z1/z2/z7/Cout
*775 v0/z1/z2/z7/_00_
*776 v0/z1/z2/z7/_01_
*777 v0/z1/z2/z7/_02_
*778 v0/z1/z2/z7/_03_
*779 v0/z1/z2/z7/_04_
*780 v0/z1/z2/z7/_05_
*781 v0/z1/z2/z7/_06_
*782 v0/z1/z2/z7/_07_
*783 v0/z1/z2/z7/_08_
*784 v0/z1/z2/z7/_09_
*785 v0/z1/z2/z7/_10_
*786 v0/z1/z2/z7/_11_
*787 v0/z1/z2/z7/_12_
*788 v0/z1/z2/z7/_13_
*789 v0/z1/z2/z7/_14_
*790 v0/z1/z2/z7/_15_
*791 v0/z1/z2/z7/_16_
*792 v0/z1/z2/z7/_17_
*793 v0/z1/z2/z7/_18_
*794 v0/z1/z3/_00_
*795 v0/z1/z3/_01_
*796 v0/z1/z3/_02_
*797 v0/z1/z3/_03_
*798 v0/z1/z3/_04_
*799 v0/z1/z3/_05_
*800 v0/z1/z3/_06_
*801 v0/z1/z3/_07_
*802 v0/z1/z3/_08_
*803 v0/z1/z3/_09_
*804 v0/z1/z3/_10_
*805 v0/z1/z3/q0[2]
*806 v0/z1/z3/q0[3]
*807 v0/z1/z3/q1[0]
*808 v0/z1/z3/q1[1]
*809 v0/z1/z3/q1[2]
*810 v0/z1/z3/q1[3]
*811 v0/z1/z3/q2[0]
*812 v0/z1/z3/q2[1]
*813 v0/z1/z3/q2[2]
*814 v0/z1/z3/q2[3]
*815 v0/z1/z3/q3[0]
*816 v0/z1/z3/q3[1]
*817 v0/z1/z3/q3[2]
*818 v0/z1/z3/q3[3]
*819 v0/z1/z3/q4[0]
*820 v0/z1/z3/q4[1]
*821 v0/z1/z3/q4[2]
*822 v0/z1/z3/q4[3]
*823 v0/z1/z3/q5[0]
*824 v0/z1/z3/q5[1]
*825 v0/z1/z3/q5[2]
*826 v0/z1/z3/q5[3]
*827 v0/z1/z3/q5[4]
*828 v0/z1/z3/q5[5]
*829 v0/z1/z3/z1/temp[0]
*830 v0/z1/z3/z1/temp[1]
*831 v0/z1/z3/z1/temp[2]
*832 v0/z1/z3/z1/temp[3]
*833 v0/z1/z3/z2/temp[0]
*834 v0/z1/z3/z2/temp[1]
*835 v0/z1/z3/z2/temp[2]
*836 v0/z1/z3/z2/temp[3]
*837 v0/z1/z3/z3/temp[0]
*838 v0/z1/z3/z3/temp[1]
*839 v0/z1/z3/z3/temp[2]
*840 v0/z1/z3/z3/temp[3]
*841 v0/z1/z3/z4/temp[0]
*842 v0/z1/z3/z4/temp[1]
*843 v0/z1/z3/z4/temp[2]
*844 v0/z1/z3/z4/temp[3]
*845 v0/z1/z3/z5/Cout
*846 v0/z1/z3/z5/_00_
*847 v0/z1/z3/z5/_01_
*848 v0/z1/z3/z5/_02_
*849 v0/z1/z3/z5/_03_
*850 v0/z1/z3/z5/_04_
*851 v0/z1/z3/z5/_05_
*852 v0/z1/z3/z5/_06_
*853 v0/z1/z3/z6/Cout
*854 v0/z1/z3/z6/_00_
*855 v0/z1/z3/z6/_01_
*856 v0/z1/z3/z6/_02_
*857 v0/z1/z3/z6/_03_
*858 v0/z1/z3/z6/_04_
*859 v0/z1/z3/z6/_05_
*860 v0/z1/z3/z6/_06_
*861 v0/z1/z3/z6/_07_
*862 v0/z1/z3/z6/_08_
*863 v0/z1/z3/z6/_09_
*864 v0/z1/z3/z6/_10_
*865 v0/z1/z3/z6/_11_
*866 v0/z1/z3/z6/_12_
*867 v0/z1/z3/z6/_13_
*868 v0/z1/z3/z6/_14_
*869 v0/z1/z3/z6/_15_
*870 v0/z1/z3/z6/_16_
*871 v0/z1/z3/z6/_17_
*872 v0/z1/z3/z6/_18_
*873 v0/z1/z3/z7/Cout
*874 v0/z1/z3/z7/_00_
*875 v0/z1/z3/z7/_01_
*876 v0/z1/z3/z7/_02_
*877 v0/z1/z3/z7/_03_
*878 v0/z1/z3/z7/_04_
*879 v0/z1/z3/z7/_05_
*880 v0/z1/z3/z7/_06_
*881 v0/z1/z3/z7/_07_
*882 v0/z1/z3/z7/_08_
*883 v0/z1/z3/z7/_09_
*884 v0/z1/z3/z7/_10_
*885 v0/z1/z3/z7/_11_
*886 v0/z1/z3/z7/_12_
*887 v0/z1/z3/z7/_13_
*888 v0/z1/z3/z7/_14_
*889 v0/z1/z3/z7/_15_
*890 v0/z1/z3/z7/_16_
*891 v0/z1/z3/z7/_17_
*892 v0/z1/z3/z7/_18_
*893 v0/z1/z4/_00_
*894 v0/z1/z4/_01_
*895 v0/z1/z4/_02_
*896 v0/z1/z4/_03_
*897 v0/z1/z4/_04_
*898 v0/z1/z4/_05_
*899 v0/z1/z4/_06_
*900 v0/z1/z4/_07_
*901 v0/z1/z4/_08_
*902 v0/z1/z4/_09_
*903 v0/z1/z4/_10_
*904 v0/z1/z4/q0[2]
*905 v0/z1/z4/q0[3]
*906 v0/z1/z4/q1[0]
*907 v0/z1/z4/q1[1]
*908 v0/z1/z4/q1[2]
*909 v0/z1/z4/q1[3]
*910 v0/z1/z4/q2[0]
*911 v0/z1/z4/q2[1]
*912 v0/z1/z4/q2[2]
*913 v0/z1/z4/q2[3]
*914 v0/z1/z4/q3[0]
*915 v0/z1/z4/q3[1]
*916 v0/z1/z4/q3[2]
*917 v0/z1/z4/q3[3]
*918 v0/z1/z4/q4[0]
*919 v0/z1/z4/q4[1]
*920 v0/z1/z4/q4[2]
*921 v0/z1/z4/q4[3]
*922 v0/z1/z4/q5[0]
*923 v0/z1/z4/q5[1]
*924 v0/z1/z4/q5[2]
*925 v0/z1/z4/q5[3]
*926 v0/z1/z4/q5[4]
*927 v0/z1/z4/q5[5]
*928 v0/z1/z4/z1/temp[0]
*929 v0/z1/z4/z1/temp[1]
*930 v0/z1/z4/z1/temp[2]
*931 v0/z1/z4/z1/temp[3]
*932 v0/z1/z4/z2/temp[0]
*933 v0/z1/z4/z2/temp[1]
*934 v0/z1/z4/z2/temp[2]
*935 v0/z1/z4/z2/temp[3]
*936 v0/z1/z4/z3/temp[0]
*937 v0/z1/z4/z3/temp[1]
*938 v0/z1/z4/z3/temp[2]
*939 v0/z1/z4/z3/temp[3]
*940 v0/z1/z4/z4/temp[0]
*941 v0/z1/z4/z4/temp[1]
*942 v0/z1/z4/z4/temp[2]
*943 v0/z1/z4/z4/temp[3]
*944 v0/z1/z4/z5/Cout
*945 v0/z1/z4/z5/_00_
*946 v0/z1/z4/z5/_01_
*947 v0/z1/z4/z5/_02_
*948 v0/z1/z4/z5/_03_
*949 v0/z1/z4/z5/_04_
*950 v0/z1/z4/z5/_05_
*951 v0/z1/z4/z5/_06_
*952 v0/z1/z4/z6/Cout
*953 v0/z1/z4/z6/_00_
*954 v0/z1/z4/z6/_01_
*955 v0/z1/z4/z6/_02_
*956 v0/z1/z4/z6/_03_
*957 v0/z1/z4/z6/_04_
*958 v0/z1/z4/z6/_05_
*959 v0/z1/z4/z6/_06_
*960 v0/z1/z4/z6/_07_
*961 v0/z1/z4/z6/_08_
*962 v0/z1/z4/z6/_09_
*963 v0/z1/z4/z6/_10_
*964 v0/z1/z4/z6/_11_
*965 v0/z1/z4/z6/_12_
*966 v0/z1/z4/z6/_13_
*967 v0/z1/z4/z6/_14_
*968 v0/z1/z4/z6/_15_
*969 v0/z1/z4/z6/_16_
*970 v0/z1/z4/z6/_17_
*971 v0/z1/z4/z6/_18_
*972 v0/z1/z4/z7/Cout
*973 v0/z1/z4/z7/_00_
*974 v0/z1/z4/z7/_01_
*975 v0/z1/z4/z7/_02_
*976 v0/z1/z4/z7/_03_
*977 v0/z1/z4/z7/_04_
*978 v0/z1/z4/z7/_05_
*979 v0/z1/z4/z7/_06_
*980 v0/z1/z4/z7/_07_
*981 v0/z1/z4/z7/_08_
*982 v0/z1/z4/z7/_09_
*983 v0/z1/z4/z7/_10_
*984 v0/z1/z4/z7/_11_
*985 v0/z1/z4/z7/_12_
*986 v0/z1/z4/z7/_13_
*987 v0/z1/z4/z7/_14_
*988 v0/z1/z4/z7/_15_
*989 v0/z1/z4/z7/_16_
*990 v0/z1/z4/z7/_17_
*991 v0/z1/z4/z7/_18_
*992 v0/z1/z5/Cout
*993 v0/z1/z5/_00_
*994 v0/z1/z5/_01_
*995 v0/z1/z5/_02_
*996 v0/z1/z5/_03_
*997 v0/z1/z5/_04_
*998 v0/z1/z5/_05_
*999 v0/z1/z5/_06_
*1000 v0/z1/z5/_07_
*1001 v0/z1/z5/_08_
*1002 v0/z1/z5/_09_
*1003 v0/z1/z5/_10_
*1004 v0/z1/z5/_11_
*1005 v0/z1/z5/_12_
*1006 v0/z1/z5/_13_
*1007 v0/z1/z5/_14_
*1008 v0/z1/z5/_15_
*1009 v0/z1/z5/_16_
*1010 v0/z1/z5/_17_
*1011 v0/z1/z5/_18_
*1012 v0/z1/z5/_19_
*1013 v0/z1/z5/_20_
*1014 v0/z1/z5/_21_
*1015 v0/z1/z5/_22_
*1016 v0/z1/z5/_23_
*1017 v0/z1/z5/_24_
*1018 v0/z1/z5/_25_
*1019 v0/z1/z5/_26_
*1020 v0/z1/z6/Cout
*1021 v0/z1/z6/_000_
*1022 v0/z1/z6/_001_
*1023 v0/z1/z6/_002_
*1024 v0/z1/z6/_003_
*1025 v0/z1/z6/_004_
*1026 v0/z1/z6/_005_
*1027 v0/z1/z6/_006_
*1028 v0/z1/z6/_007_
*1029 v0/z1/z6/_008_
*1030 v0/z1/z6/_009_
*1031 v0/z1/z6/_010_
*1032 v0/z1/z6/_011_
*1033 v0/z1/z6/_012_
*1034 v0/z1/z6/_013_
*1035 v0/z1/z6/_014_
*1036 v0/z1/z6/_015_
*1037 v0/z1/z6/_016_
*1038 v0/z1/z6/_017_
*1039 v0/z1/z6/_018_
*1040 v0/z1/z6/_019_
*1041 v0/z1/z6/_020_
*1042 v0/z1/z6/_021_
*1043 v0/z1/z6/_022_
*1044 v0/z1/z6/_023_
*1045 v0/z1/z6/_024_
*1046 v0/z1/z6/_025_
*1047 v0/z1/z6/_026_
*1048 v0/z1/z6/_027_
*1049 v0/z1/z6/_028_
*1050 v0/z1/z6/_029_
*1051 v0/z1/z6/_030_
*1052 v0/z1/z6/_031_
*1053 v0/z1/z6/_032_
*1054 v0/z1/z6/_033_
*1055 v0/z1/z6/_034_
*1056 v0/z1/z6/_035_
*1057 v0/z1/z6/_036_
*1058 v0/z1/z6/_037_
*1059 v0/z1/z6/_038_
*1060 v0/z1/z6/_039_
*1061 v0/z1/z6/_040_
*1062 v0/z1/z6/_041_
*1063 v0/z1/z6/_042_
*1064 v0/z1/z6/_043_
*1065 v0/z1/z6/_044_
*1066 v0/z1/z6/_045_
*1067 v0/z1/z6/_046_
*1068 v0/z1/z6/_047_
*1069 v0/z1/z6/_048_
*1070 v0/z1/z6/_049_
*1071 v0/z1/z7/Cout
*1072 v0/z1/z7/_000_
*1073 v0/z1/z7/_001_
*1074 v0/z1/z7/_002_
*1075 v0/z1/z7/_003_
*1076 v0/z1/z7/_004_
*1077 v0/z1/z7/_005_
*1078 v0/z1/z7/_006_
*1079 v0/z1/z7/_007_
*1080 v0/z1/z7/_008_
*1081 v0/z1/z7/_009_
*1082 v0/z1/z7/_010_
*1083 v0/z1/z7/_011_
*1084 v0/z1/z7/_012_
*1085 v0/z1/z7/_013_
*1086 v0/z1/z7/_014_
*1087 v0/z1/z7/_015_
*1088 v0/z1/z7/_016_
*1089 v0/z1/z7/_017_
*1090 v0/z1/z7/_018_
*1091 v0/z1/z7/_019_
*1092 v0/z1/z7/_020_
*1093 v0/z1/z7/_021_
*1094 v0/z1/z7/_022_
*1095 v0/z1/z7/_023_
*1096 v0/z1/z7/_024_
*1097 v0/z1/z7/_025_
*1098 v0/z1/z7/_026_
*1099 v0/z1/z7/_027_
*1100 v0/z1/z7/_028_
*1101 v0/z1/z7/_029_
*1102 v0/z1/z7/_030_
*1103 v0/z1/z7/_031_
*1104 v0/z1/z7/_032_
*1105 v0/z1/z7/_033_
*1106 v0/z1/z7/_034_
*1107 v0/z1/z7/_035_
*1108 v0/z1/z7/_036_
*1109 v0/z1/z7/_037_
*1110 v0/z1/z7/_038_
*1111 v0/z1/z7/_039_
*1112 v0/z1/z7/_040_
*1113 v0/z1/z7/_041_
*1114 v0/z1/z7/_042_
*1115 v0/z1/z7/_043_
*1116 v0/z1/z7/_044_
*1117 v0/z1/z7/_045_
*1118 v0/z1/z7/_046_
*1119 v0/z1/z7/_047_
*1120 v0/z1/z7/_048_
*1121 v0/z1/z7/_049_
*1122 v0/z2/_00_
*1123 v0/z2/_01_
*1124 v0/z2/_02_
*1125 v0/z2/_03_
*1126 v0/z2/_04_
*1127 v0/z2/_05_
*1128 v0/z2/_06_
*1129 v0/z2/_07_
*1130 v0/z2/_08_
*1131 v0/z2/_09_
*1132 v0/z2/_10_
*1133 v0/z2/_11_
*1134 v0/z2/_12_
*1135 v0/z2/_13_
*1136 v0/z2/_14_
*1137 v0/z2/_15_
*1138 v0/z2/_16_
*1139 v0/z2/_17_
*1140 v0/z2/_18_
*1141 v0/z2/q0[4]
*1142 v0/z2/q0[5]
*1143 v0/z2/q0[6]
*1144 v0/z2/q0[7]
*1145 v0/z2/q1[0]
*1146 v0/z2/q1[1]
*1147 v0/z2/q1[2]
*1148 v0/z2/q1[3]
*1149 v0/z2/q1[4]
*1150 v0/z2/q1[5]
*1151 v0/z2/q1[6]
*1152 v0/z2/q1[7]
*1153 v0/z2/q2[0]
*1154 v0/z2/q2[1]
*1155 v0/z2/q2[2]
*1156 v0/z2/q2[3]
*1157 v0/z2/q2[4]
*1158 v0/z2/q2[5]
*1159 v0/z2/q2[6]
*1160 v0/z2/q2[7]
*1161 v0/z2/q3[0]
*1162 v0/z2/q3[1]
*1163 v0/z2/q3[2]
*1164 v0/z2/q3[3]
*1165 v0/z2/q3[4]
*1166 v0/z2/q3[5]
*1167 v0/z2/q3[6]
*1168 v0/z2/q3[7]
*1169 v0/z2/q4[0]
*1170 v0/z2/q4[1]
*1171 v0/z2/q4[2]
*1172 v0/z2/q4[3]
*1173 v0/z2/q4[4]
*1174 v0/z2/q4[5]
*1175 v0/z2/q4[6]
*1176 v0/z2/q4[7]
*1177 v0/z2/q5[0]
*1178 v0/z2/q5[10]
*1179 v0/z2/q5[11]
*1180 v0/z2/q5[1]
*1181 v0/z2/q5[2]
*1182 v0/z2/q5[3]
*1183 v0/z2/q5[4]
*1184 v0/z2/q5[5]
*1185 v0/z2/q5[6]
*1186 v0/z2/q5[7]
*1187 v0/z2/q5[8]
*1188 v0/z2/q5[9]
*1189 v0/z2/z1/_00_
*1190 v0/z2/z1/_01_
*1191 v0/z2/z1/_02_
*1192 v0/z2/z1/_03_
*1193 v0/z2/z1/_04_
*1194 v0/z2/z1/_05_
*1195 v0/z2/z1/_06_
*1196 v0/z2/z1/_07_
*1197 v0/z2/z1/_08_
*1198 v0/z2/z1/_09_
*1199 v0/z2/z1/_10_
*1200 v0/z2/z1/q0[2]
*1201 v0/z2/z1/q0[3]
*1202 v0/z2/z1/q1[0]
*1203 v0/z2/z1/q1[1]
*1204 v0/z2/z1/q1[2]
*1205 v0/z2/z1/q1[3]
*1206 v0/z2/z1/q2[0]
*1207 v0/z2/z1/q2[1]
*1208 v0/z2/z1/q2[2]
*1209 v0/z2/z1/q2[3]
*1210 v0/z2/z1/q3[0]
*1211 v0/z2/z1/q3[1]
*1212 v0/z2/z1/q3[2]
*1213 v0/z2/z1/q3[3]
*1214 v0/z2/z1/q4[0]
*1215 v0/z2/z1/q4[1]
*1216 v0/z2/z1/q4[2]
*1217 v0/z2/z1/q4[3]
*1218 v0/z2/z1/q5[0]
*1219 v0/z2/z1/q5[1]
*1220 v0/z2/z1/q5[2]
*1221 v0/z2/z1/q5[3]
*1222 v0/z2/z1/q5[4]
*1223 v0/z2/z1/q5[5]
*1224 v0/z2/z1/z1/temp[0]
*1225 v0/z2/z1/z1/temp[1]
*1226 v0/z2/z1/z1/temp[2]
*1227 v0/z2/z1/z1/temp[3]
*1228 v0/z2/z1/z2/temp[0]
*1229 v0/z2/z1/z2/temp[1]
*1230 v0/z2/z1/z2/temp[2]
*1231 v0/z2/z1/z2/temp[3]
*1232 v0/z2/z1/z3/temp[0]
*1233 v0/z2/z1/z3/temp[1]
*1234 v0/z2/z1/z3/temp[2]
*1235 v0/z2/z1/z3/temp[3]
*1236 v0/z2/z1/z4/temp[0]
*1237 v0/z2/z1/z4/temp[1]
*1238 v0/z2/z1/z4/temp[2]
*1239 v0/z2/z1/z4/temp[3]
*1240 v0/z2/z1/z5/Cout
*1241 v0/z2/z1/z5/_00_
*1242 v0/z2/z1/z5/_01_
*1243 v0/z2/z1/z5/_02_
*1244 v0/z2/z1/z5/_03_
*1245 v0/z2/z1/z5/_04_
*1246 v0/z2/z1/z5/_05_
*1247 v0/z2/z1/z5/_06_
*1248 v0/z2/z1/z6/Cout
*1249 v0/z2/z1/z6/_00_
*1250 v0/z2/z1/z6/_01_
*1251 v0/z2/z1/z6/_02_
*1252 v0/z2/z1/z6/_03_
*1253 v0/z2/z1/z6/_04_
*1254 v0/z2/z1/z6/_05_
*1255 v0/z2/z1/z6/_06_
*1256 v0/z2/z1/z6/_07_
*1257 v0/z2/z1/z6/_08_
*1258 v0/z2/z1/z6/_09_
*1259 v0/z2/z1/z6/_10_
*1260 v0/z2/z1/z6/_11_
*1261 v0/z2/z1/z6/_12_
*1262 v0/z2/z1/z6/_13_
*1263 v0/z2/z1/z6/_14_
*1264 v0/z2/z1/z6/_15_
*1265 v0/z2/z1/z6/_16_
*1266 v0/z2/z1/z6/_17_
*1267 v0/z2/z1/z6/_18_
*1268 v0/z2/z1/z7/Cout
*1269 v0/z2/z1/z7/_00_
*1270 v0/z2/z1/z7/_01_
*1271 v0/z2/z1/z7/_02_
*1272 v0/z2/z1/z7/_03_
*1273 v0/z2/z1/z7/_04_
*1274 v0/z2/z1/z7/_05_
*1275 v0/z2/z1/z7/_06_
*1276 v0/z2/z1/z7/_07_
*1277 v0/z2/z1/z7/_08_
*1278 v0/z2/z1/z7/_09_
*1279 v0/z2/z1/z7/_10_
*1280 v0/z2/z1/z7/_11_
*1281 v0/z2/z1/z7/_12_
*1282 v0/z2/z1/z7/_13_
*1283 v0/z2/z1/z7/_14_
*1284 v0/z2/z1/z7/_15_
*1285 v0/z2/z1/z7/_16_
*1286 v0/z2/z1/z7/_17_
*1287 v0/z2/z1/z7/_18_
*1288 v0/z2/z2/_00_
*1289 v0/z2/z2/_01_
*1290 v0/z2/z2/_02_
*1291 v0/z2/z2/_03_
*1292 v0/z2/z2/_04_
*1293 v0/z2/z2/_05_
*1294 v0/z2/z2/_06_
*1295 v0/z2/z2/_07_
*1296 v0/z2/z2/_08_
*1297 v0/z2/z2/_09_
*1298 v0/z2/z2/_10_
*1299 v0/z2/z2/q0[2]
*1300 v0/z2/z2/q0[3]
*1301 v0/z2/z2/q1[0]
*1302 v0/z2/z2/q1[1]
*1303 v0/z2/z2/q1[2]
*1304 v0/z2/z2/q1[3]
*1305 v0/z2/z2/q2[0]
*1306 v0/z2/z2/q2[1]
*1307 v0/z2/z2/q2[2]
*1308 v0/z2/z2/q2[3]
*1309 v0/z2/z2/q3[0]
*1310 v0/z2/z2/q3[1]
*1311 v0/z2/z2/q3[2]
*1312 v0/z2/z2/q3[3]
*1313 v0/z2/z2/q4[0]
*1314 v0/z2/z2/q4[1]
*1315 v0/z2/z2/q4[2]
*1316 v0/z2/z2/q4[3]
*1317 v0/z2/z2/q5[0]
*1318 v0/z2/z2/q5[1]
*1319 v0/z2/z2/q5[2]
*1320 v0/z2/z2/q5[3]
*1321 v0/z2/z2/q5[4]
*1322 v0/z2/z2/q5[5]
*1323 v0/z2/z2/z1/temp[0]
*1324 v0/z2/z2/z1/temp[1]
*1325 v0/z2/z2/z1/temp[2]
*1326 v0/z2/z2/z1/temp[3]
*1327 v0/z2/z2/z2/temp[0]
*1328 v0/z2/z2/z2/temp[1]
*1329 v0/z2/z2/z2/temp[2]
*1330 v0/z2/z2/z2/temp[3]
*1331 v0/z2/z2/z3/temp[0]
*1332 v0/z2/z2/z3/temp[1]
*1333 v0/z2/z2/z3/temp[2]
*1334 v0/z2/z2/z3/temp[3]
*1335 v0/z2/z2/z4/temp[0]
*1336 v0/z2/z2/z4/temp[1]
*1337 v0/z2/z2/z4/temp[2]
*1338 v0/z2/z2/z4/temp[3]
*1339 v0/z2/z2/z5/Cout
*1340 v0/z2/z2/z5/_00_
*1341 v0/z2/z2/z5/_01_
*1342 v0/z2/z2/z5/_02_
*1343 v0/z2/z2/z5/_03_
*1344 v0/z2/z2/z5/_04_
*1345 v0/z2/z2/z5/_05_
*1346 v0/z2/z2/z5/_06_
*1347 v0/z2/z2/z6/Cout
*1348 v0/z2/z2/z6/_00_
*1349 v0/z2/z2/z6/_01_
*1350 v0/z2/z2/z6/_02_
*1351 v0/z2/z2/z6/_03_
*1352 v0/z2/z2/z6/_04_
*1353 v0/z2/z2/z6/_05_
*1354 v0/z2/z2/z6/_06_
*1355 v0/z2/z2/z6/_07_
*1356 v0/z2/z2/z6/_08_
*1357 v0/z2/z2/z6/_09_
*1358 v0/z2/z2/z6/_10_
*1359 v0/z2/z2/z6/_11_
*1360 v0/z2/z2/z6/_12_
*1361 v0/z2/z2/z6/_13_
*1362 v0/z2/z2/z6/_14_
*1363 v0/z2/z2/z6/_15_
*1364 v0/z2/z2/z6/_16_
*1365 v0/z2/z2/z6/_17_
*1366 v0/z2/z2/z6/_18_
*1367 v0/z2/z2/z7/Cout
*1368 v0/z2/z2/z7/_00_
*1369 v0/z2/z2/z7/_01_
*1370 v0/z2/z2/z7/_02_
*1371 v0/z2/z2/z7/_03_
*1372 v0/z2/z2/z7/_04_
*1373 v0/z2/z2/z7/_05_
*1374 v0/z2/z2/z7/_06_
*1375 v0/z2/z2/z7/_07_
*1376 v0/z2/z2/z7/_08_
*1377 v0/z2/z2/z7/_09_
*1378 v0/z2/z2/z7/_10_
*1379 v0/z2/z2/z7/_11_
*1380 v0/z2/z2/z7/_12_
*1381 v0/z2/z2/z7/_13_
*1382 v0/z2/z2/z7/_14_
*1383 v0/z2/z2/z7/_15_
*1384 v0/z2/z2/z7/_16_
*1385 v0/z2/z2/z7/_17_
*1386 v0/z2/z2/z7/_18_
*1387 v0/z2/z3/_00_
*1388 v0/z2/z3/_01_
*1389 v0/z2/z3/_02_
*1390 v0/z2/z3/_03_
*1391 v0/z2/z3/_04_
*1392 v0/z2/z3/_05_
*1393 v0/z2/z3/_06_
*1394 v0/z2/z3/_07_
*1395 v0/z2/z3/_08_
*1396 v0/z2/z3/_09_
*1397 v0/z2/z3/_10_
*1398 v0/z2/z3/q0[2]
*1399 v0/z2/z3/q0[3]
*1400 v0/z2/z3/q1[0]
*1401 v0/z2/z3/q1[1]
*1402 v0/z2/z3/q1[2]
*1403 v0/z2/z3/q1[3]
*1404 v0/z2/z3/q2[0]
*1405 v0/z2/z3/q2[1]
*1406 v0/z2/z3/q2[2]
*1407 v0/z2/z3/q2[3]
*1408 v0/z2/z3/q3[0]
*1409 v0/z2/z3/q3[1]
*1410 v0/z2/z3/q3[2]
*1411 v0/z2/z3/q3[3]
*1412 v0/z2/z3/q4[0]
*1413 v0/z2/z3/q4[1]
*1414 v0/z2/z3/q4[2]
*1415 v0/z2/z3/q4[3]
*1416 v0/z2/z3/q5[0]
*1417 v0/z2/z3/q5[1]
*1418 v0/z2/z3/q5[2]
*1419 v0/z2/z3/q5[3]
*1420 v0/z2/z3/q5[4]
*1421 v0/z2/z3/q5[5]
*1422 v0/z2/z3/z1/temp[0]
*1423 v0/z2/z3/z1/temp[1]
*1424 v0/z2/z3/z1/temp[2]
*1425 v0/z2/z3/z1/temp[3]
*1426 v0/z2/z3/z2/temp[0]
*1427 v0/z2/z3/z2/temp[1]
*1428 v0/z2/z3/z2/temp[2]
*1429 v0/z2/z3/z2/temp[3]
*1430 v0/z2/z3/z3/temp[0]
*1431 v0/z2/z3/z3/temp[1]
*1432 v0/z2/z3/z3/temp[2]
*1433 v0/z2/z3/z3/temp[3]
*1434 v0/z2/z3/z4/temp[0]
*1435 v0/z2/z3/z4/temp[1]
*1436 v0/z2/z3/z4/temp[2]
*1437 v0/z2/z3/z4/temp[3]
*1438 v0/z2/z3/z5/Cout
*1439 v0/z2/z3/z5/_00_
*1440 v0/z2/z3/z5/_01_
*1441 v0/z2/z3/z5/_02_
*1442 v0/z2/z3/z5/_03_
*1443 v0/z2/z3/z5/_04_
*1444 v0/z2/z3/z5/_05_
*1445 v0/z2/z3/z5/_06_
*1446 v0/z2/z3/z6/Cout
*1447 v0/z2/z3/z6/_00_
*1448 v0/z2/z3/z6/_01_
*1449 v0/z2/z3/z6/_02_
*1450 v0/z2/z3/z6/_03_
*1451 v0/z2/z3/z6/_04_
*1452 v0/z2/z3/z6/_05_
*1453 v0/z2/z3/z6/_06_
*1454 v0/z2/z3/z6/_07_
*1455 v0/z2/z3/z6/_08_
*1456 v0/z2/z3/z6/_09_
*1457 v0/z2/z3/z6/_10_
*1458 v0/z2/z3/z6/_11_
*1459 v0/z2/z3/z6/_12_
*1460 v0/z2/z3/z6/_13_
*1461 v0/z2/z3/z6/_14_
*1462 v0/z2/z3/z6/_15_
*1463 v0/z2/z3/z6/_16_
*1464 v0/z2/z3/z6/_17_
*1465 v0/z2/z3/z6/_18_
*1466 v0/z2/z3/z7/Cout
*1467 v0/z2/z3/z7/_00_
*1468 v0/z2/z3/z7/_01_
*1469 v0/z2/z3/z7/_02_
*1470 v0/z2/z3/z7/_03_
*1471 v0/z2/z3/z7/_04_
*1472 v0/z2/z3/z7/_05_
*1473 v0/z2/z3/z7/_06_
*1474 v0/z2/z3/z7/_07_
*1475 v0/z2/z3/z7/_08_
*1476 v0/z2/z3/z7/_09_
*1477 v0/z2/z3/z7/_10_
*1478 v0/z2/z3/z7/_11_
*1479 v0/z2/z3/z7/_12_
*1480 v0/z2/z3/z7/_13_
*1481 v0/z2/z3/z7/_14_
*1482 v0/z2/z3/z7/_15_
*1483 v0/z2/z3/z7/_16_
*1484 v0/z2/z3/z7/_17_
*1485 v0/z2/z3/z7/_18_
*1486 v0/z2/z4/_00_
*1487 v0/z2/z4/_01_
*1488 v0/z2/z4/_02_
*1489 v0/z2/z4/_03_
*1490 v0/z2/z4/_04_
*1491 v0/z2/z4/_05_
*1492 v0/z2/z4/_06_
*1493 v0/z2/z4/_07_
*1494 v0/z2/z4/_08_
*1495 v0/z2/z4/_09_
*1496 v0/z2/z4/_10_
*1497 v0/z2/z4/q0[2]