*SPEF "ieee 1481-1999"
*DESIGN "wallace1"
*DATE "23:05:58 Thursday October 30, 2025"
*VENDOR "The OpenROAD Project"
*PROGRAM "OpenROAD"
*VERSION "v2.0-24548-g4fa65c3a24"
*DESIGN_FLOW "NAME_SCOPE LOCAL" "PIN_CAP NONE"
*DIVIDER /
*DELIMITER :
*BUS_DELIMITER []
*T_UNIT 1 NS
*C_UNIT 1 PF
*R_UNIT 1 OHM
*L_UNIT 1 HENRY

*NAME_MAP
*1 a[0]
*2 a[10]
*3 a[11]
*4 a[12]
*5 a[13]
*6 a[14]
*7 a[15]
*8 a[1]
*9 a[2]
*10 a[3]
*11 a[4]
*12 a[5]
*13 a[6]
*14 a[7]
*15 a[8]
*16 a[9]
*17 b[0]
*18 b[10]
*19 b[11]
*20 b[12]
*21 b[13]
*22 b[14]
*23 b[15]
*24 b[1]
*25 b[2]
*26 b[3]
*27 b[4]
*28 b[5]
*29 b[6]
*30 b[7]
*31 b[8]
*32 b[9]
*33 out[0]
*34 out[10]
*35 out[11]
*36 out[12]
*37 out[13]
*38 out[14]
*39 out[15]
*40 out[16]
*41 out[17]
*42 out[18]
*43 out[19]
*44 out[1]
*45 out[20]
*46 out[21]
*47 out[22]
*48 out[23]
*49 out[24]
*50 out[25]
*51 out[26]
*52 out[27]
*53 out[28]
*54 out[29]
*55 out[2]
*56 out[30]
*57 out[31]
*58 out[3]
*59 out[4]
*60 out[5]
*61 out[6]
*62 out[7]
*63 out[8]
*64 out[9]
*67 _000_
*68 _001_
*69 _002_
*70 _003_
*71 _004_
*72 _005_
*73 _006_
*74 _007_
*75 _008_
*76 _009_
*77 _010_
*78 _011_
*79 _012_
*80 _013_
*81 _014_
*82 _015_
*83 _016_
*84 _017_
*85 _018_
*86 _019_
*87 _020_
*88 _021_
*89 _022_
*90 _023_
*91 _024_
*92 _025_
*93 _026_
*94 _027_
*95 _028_
*96 _029_
*97 _030_
*98 _031_
*99 _032_
*100 _033_
*101 _034_
*102 _035_
*103 _036_
*104 _037_
*105 _038_
*106 _039_
*107 _040_
*108 _041_
*109 _042_
*110 _043_
*111 _044_
*112 _045_
*113 _046_
*114 _047_
*115 _048_
*116 _049_
*117 _050_
*118 _051_
*119 _052_
*120 _053_
*121 _054_
*122 _055_
*123 _056_
*124 _057_
*125 _058_
*126 _059_
*127 _060_
*128 _061_
*129 _062_
*130 _063_
*131 _064_
*132 _065_
*133 _066_
*134 _067_
*135 _068_
*136 _069_
*137 _070_
*138 _071_
*139 _072_
*140 _073_
*141 _074_
*142 _075_
*143 _076_
*144 _077_
*145 _078_
*146 _079_
*147 _080_
*148 _081_
*149 _082_
*150 _083_
*151 _084_
*152 _085_
*153 _086_
*154 _087_
*155 _088_
*156 _089_
*157 _090_
*158 _091_
*159 _092_
*160 _093_
*161 _094_
*162 _095_
*163 _096_
*164 _097_
*165 _098_
*166 _099_
*167 _100_
*168 _101_
*169 _102_
*170 _103_
*171 abs_out[10]
*172 abs_out[11]
*173 abs_out[12]
*174 abs_out[13]
*175 abs_out[14]
*176 abs_out[15]
*177 abs_out[16]
*178 abs_out[17]
*179 abs_out[18]
*180 abs_out[19]
*181 abs_out[1]
*182 abs_out[20]
*183 abs_out[21]
*184 abs_out[22]
*185 abs_out[23]
*186 abs_out[24]
*187 abs_out[25]
*188 abs_out[26]
*189 abs_out[27]
*190 abs_out[28]
*191 abs_out[29]
*192 abs_out[2]
*193 abs_out[30]
*194 abs_out[31]
*195 abs_out[3]
*196 abs_out[4]
*197 abs_out[5]
*198 abs_out[6]
*199 abs_out[7]
*200 abs_out[8]
*201 abs_out[9]
*202 c0[0]
*203 c0[10]
*204 c0[11]
*205 c0[12]
*206 c0[13]
*207 c0[14]
*208 c0[15]
*209 c0[16]
*210 c0[17]
*211 c0[18]
*212 c0[19]
*213 c0[1]
*214 c0[20]
*215 c0[21]
*216 c0[22]
*217 c0[23]
*218 c0[24]
*219 c0[25]
*220 c0[26]
*221 c0[27]
*222 c0[28]
*223 c0[29]
*224 c0[2]
*225 c0[30]
*226 c0[31]
*227 c0[32]
*228 c0[33]
*229 c0[34]
*230 c0[35]
*231 c0[36]
*232 c0[37]
*233 c0[38]
*234 c0[39]
*235 c0[3]
*236 c0[40]
*237 c0[41]
*238 c0[42]
*239 c0[43]
*240 c0[44]
*241 c0[45]
*242 c0[46]
*243 c0[47]
*244 c0[48]
*245 c0[49]
*246 c0[4]
*247 c0[50]
*248 c0[51]
*249 c0[52]
*250 c0[53]
*251 c0[54]
*252 c0[55]
*253 c0[56]
*254 c0[57]
*255 c0[58]
*256 c0[59]
*257 c0[5]
*258 c0[60]
*259 c0[61]
*260 c0[62]
*261 c0[63]
*262 c0[64]
*263 c0[65]
*264 c0[66]
*265 c0[67]
*266 c0[68]
*267 c0[69]
*268 c0[6]
*269 c0[70]
*270 c0[71]
*271 c0[72]
*272 c0[73]
*273 c0[74]
*274 c0[75]
*275 c0[76]
*276 c0[77]
*277 c0[78]
*278 c0[79]
*279 c0[7]
*280 c0[8]
*281 c0[9]
*282 c1[0]
*283 c1[10]
*284 c1[11]
*285 c1[12]
*286 c1[13]
*287 c1[14]
*288 c1[15]
*289 c1[16]
*290 c1[17]
*291 c1[18]
*292 c1[19]
*293 c1[1]
*294 c1[20]
*295 c1[21]
*296 c1[22]
*297 c1[23]
*298 c1[24]
*299 c1[25]
*300 c1[26]
*301 c1[27]
*302 c1[28]
*303 c1[29]
*304 c1[2]
*305 c1[30]
*306 c1[31]
*307 c1[32]
*308 c1[33]
*309 c1[34]
*310 c1[35]
*311 c1[36]
*312 c1[37]
*313 c1[38]
*314 c1[39]
*315 c1[3]
*316 c1[40]
*317 c1[41]
*318 c1[42]
*319 c1[43]
*320 c1[44]
*321 c1[45]
*322 c1[46]
*323 c1[47]
*324 c1[48]
*325 c1[49]
*326 c1[4]
*327 c1[5]
*328 c1[6]
*329 c1[7]
*330 c1[8]
*331 c1[9]
*332 c2[0]
*333 c2[10]
*334 c2[11]
*335 c2[12]
*336 c2[13]
*337 c2[14]
*338 c2[15]
*339 c2[16]
*340 c2[17]
*341 c2[18]
*342 c2[19]
*343 c2[1]
*344 c2[20]
*345 c2[21]
*346 c2[22]
*347 c2[23]
*348 c2[24]
*349 c2[25]
*350 c2[26]
*351 c2[27]
*352 c2[28]
*353 c2[29]
*354 c2[2]
*355 c2[30]
*356 c2[31]
*357 c2[32]
*358 c2[33]
*359 c2[34]
*360 c2[35]
*361 c2[36]
*362 c2[3]
*363 c2[4]
*364 c2[5]
*365 c2[6]
*366 c2[7]
*367 c2[8]
*368 c2[9]
*369 c3[0]
*370 c3[10]
*371 c3[11]
*372 c3[12]
*373 c3[13]
*374 c3[14]
*375 c3[15]
*376 c3[16]
*377 c3[17]
*378 c3[18]
*379 c3[19]
*380 c3[1]
*381 c3[20]
*382 c3[21]
*383 c3[22]
*384 c3[23]
*385 c3[24]
*386 c3[25]
*387 c3[26]
*388 c3[27]
*389 c3[28]
*390 c3[29]
*391 c3[2]
*392 c3[30]
*393 c3[31]
*394 c3[32]
*395 c3[33]
*396 c3[34]
*397 c3[35]
*398 c3[3]
*399 c3[4]
*400 c3[5]
*401 c3[6]
*402 c3[7]
*403 c3[8]
*404 c3[9]
*405 c4[0]
*406 c4[10]
*407 c4[11]
*408 c4[12]
*409 c4[13]
*410 c4[14]
*411 c4[15]
*412 c4[16]
*413 c4[17]
*414 c4[18]
*415 c4[19]
*416 c4[1]
*417 c4[20]
*418 c4[21]
*419 c4[22]
*420 c4[23]
*421 c4[2]
*422 c4[3]
*423 c4[4]
*424 c4[5]
*425 c4[6]
*426 c4[7]
*427 c4[8]
*428 c4[9]
*429 c5[0]
*430 c5[10]
*431 c5[11]
*432 c5[12]
*433 c5[13]
*434 c5[14]
*435 c5[15]
*436 c5[16]
*437 c5[17]
*438 c5[18]
*439 c5[19]
*440 c5[1]
*441 c5[20]
*442 c5[21]
*443 c5[22]
*444 c5[23]
*445 c5[24]
*446 c5[2]
*447 c5[3]
*448 c5[4]
*449 c5[5]
*450 c5[6]
*451 c5[7]
*452 c5[8]
*453 c5[9]
*454 lastadder/Cout
*455 lastadder/ksa32/_000_
*456 lastadder/ksa32/_001_
*457 lastadder/ksa32/_002_
*458 lastadder/ksa32/_003_
*459 lastadder/ksa32/_004_
*460 lastadder/ksa32/_005_
*461 lastadder/ksa32/_006_
*462 lastadder/ksa32/_007_
*463 lastadder/ksa32/_008_
*464 lastadder/ksa32/_009_
*465 lastadder/ksa32/_010_
*466 lastadder/ksa32/_011_
*467 lastadder/ksa32/_012_
*468 lastadder/ksa32/_013_
*469 lastadder/ksa32/_014_
*470 lastadder/ksa32/_015_
*471 lastadder/ksa32/_016_
*472 lastadder/ksa32/_017_
*473 lastadder/ksa32/_018_
*474 lastadder/ksa32/_019_
*475 lastadder/ksa32/_020_
*476 lastadder/ksa32/_021_
*477 lastadder/ksa32/_022_
*478 lastadder/ksa32/_023_
*479 lastadder/ksa32/_024_
*480 lastadder/ksa32/_025_
*481 lastadder/ksa32/_026_
*482 lastadder/ksa32/_027_
*483 lastadder/ksa32/_028_
*484 lastadder/ksa32/_029_
*485 lastadder/ksa32/_030_
*486 lastadder/ksa32/_031_
*487 lastadder/ksa32/_032_
*488 lastadder/ksa32/_033_
*489 lastadder/ksa32/_034_
*490 lastadder/ksa32/_035_
*491 lastadder/ksa32/_036_
*492 lastadder/ksa32/_037_
*493 lastadder/ksa32/_038_
*494 lastadder/ksa32/_039_
*495 lastadder/ksa32/_040_
*496 lastadder/ksa32/_041_
*497 lastadder/ksa32/_042_
*498 lastadder/ksa32/_043_
*499 lastadder/ksa32/_044_
*500 lastadder/ksa32/_045_
*501 lastadder/ksa32/_046_
*502 lastadder/ksa32/_047_
*503 lastadder/ksa32/_048_
*504 lastadder/ksa32/_049_
*505 lastadder/ksa32/_050_
*506 lastadder/ksa32/_051_
*507 lastadder/ksa32/_052_
*508 lastadder/ksa32/_053_
*509 lastadder/ksa32/_054_
*510 lastadder/ksa32/_055_
*511 lastadder/ksa32/_056_
*512 lastadder/ksa32/_057_
*513 lastadder/ksa32/_058_
*514 lastadder/ksa32/_059_
*515 lastadder/ksa32/_060_
*516 lastadder/ksa32/_061_
*517 lastadder/ksa32/_062_
*518 lastadder/ksa32/_063_
*519 lastadder/ksa32/_064_
*520 lastadder/ksa32/_065_
*521 lastadder/ksa32/_066_
*522 lastadder/ksa32/_067_
*523 lastadder/ksa32/_068_
*524 lastadder/ksa32/_069_
*525 lastadder/ksa32/_070_
*526 lastadder/ksa32/_071_
*527 lastadder/ksa32/_072_
*528 lastadder/ksa32/_073_
*529 lastadder/ksa32/_074_
*530 lastadder/ksa32/_075_
*531 lastadder/ksa32/_076_
*532 lastadder/ksa32/_077_
*533 lastadder/ksa32/_078_
*534 lastadder/ksa32/_079_
*535 lastadder/ksa32/_080_
*536 lastadder/ksa32/_081_
*537 lastadder/ksa32/_082_
*538 lastadder/ksa32/_083_
*539 lastadder/ksa32/_084_
*540 lastadder/ksa32/_085_
*541 lastadder/ksa32/_086_
*542 lastadder/ksa32/_087_
*543 lastadder/ksa32/_088_
*544 lastadder/ksa32/_089_
*545 lastadder/ksa32/_090_
*546 lastadder/ksa32/_091_
*547 lastadder/ksa32/_092_
*548 lastadder/ksa32/_093_
*549 lastadder/ksa32/_094_
*550 lastadder/ksa32/_095_
*551 lastadder/ksa32/_096_
*552 lastadder/ksa32/_097_
*553 lastadder/ksa32/_098_
*554 lastadder/ksa32/_099_
*555 lastadder/ksa32/_100_
*556 lastadder/ksa32/_101_
*557 lastadder/ksa32/_102_
*558 lastadder/ksa32/_103_
*559 lastadder/ksa32/_104_
*560 lastadder/ksa32/_105_
*561 lastadder/ksa32/_106_
*562 lastadder/ksa32/_107_
*563 lastadder/ksa32/_108_
*564 lastadder/ksa32/_109_
*565 lastadder/ksa32/_110_
*566 lastadder/ksa32/_111_
*567 lastadder/ksa32/_112_
*568 lastadder/ksa32/_113_
*569 lastadder/ksa32/_114_
*570 lastadder/ksa32/_115_
*571 lastadder/ksa32/_116_
*572 lastadder/ksa32/_117_
*573 lastadder/ksa32/_118_
*574 lastadder/ksa32/_119_
*575 lastadder/ksa32/_120_
*576 lastadder/ksa32/_121_
*577 lastadder/ksa32/_122_
*578 lastadder/ksa32/_123_
*579 lastadder/ksa32/_124_
*580 lastadder/ksa32/_125_
*581 lastadder/ksa32/_126_
*582 lastadder/ksa32/_127_
*583 lastadder/ksa32/_128_
*584 lastadder/ksa32/_129_
*585 lastadder/ksa32/_130_
*586 lastadder/ksa32/_131_
*587 lastadder/ksa32/_132_
*588 lastadder/ksa32/_133_
*589 lastadder/ksa32/_134_
*590 lastadder/ksa32/_135_
*591 lastadder/ksa32/_136_
*592 lastadder/ksa32/_137_
*593 lastadder/ksa32/_138_
*594 lastadder/ksa32/_139_
*595 lastadder/ksa32/_140_
*596 lastadder/ksa32/_141_
*597 lastadder/ksa32/_142_
*598 lastadder/ksa32/_143_
*599 lastadder/ksa32/_144_
*600 lastadder/ksa32/_145_
*601 lastadder/ksa32/_146_
*602 lastadder/ksa32/_147_
*603 lastadder/ksa32/_148_
*604 lastadder/ksa32/_149_
*605 lastadder/ksa32/_150_
*606 lastadder/ksa32/_151_
*607 lastadder/ksa32/_152_
*608 lastadder/ksa32/_153_
*609 lastadder/ksa32/_154_
*610 lastadder/ksa32/_155_
*611 lastadder/ksa32/_156_
*612 lastadder/ksa32/_157_
*613 lastadder/ksa32/_158_
*614 lastadder/ksa32/_159_
*615 lastadder/ksa32/_160_
*616 lastadder/ksa32/_161_
*617 lastadder/ksa32/_162_
*618 laststage/Cout
*619 laststage/ksa25/_000_
*620 laststage/ksa25/_001_
*621 laststage/ksa25/_002_
*622 laststage/ksa25/_003_
*623 laststage/ksa25/_004_
*624 laststage/ksa25/_005_
*625 laststage/ksa25/_006_
*626 laststage/ksa25/_007_
*627 laststage/ksa25/_008_
*628 laststage/ksa25/_009_
*629 laststage/ksa25/_010_
*630 laststage/ksa25/_011_
*631 laststage/ksa25/_012_
*632 laststage/ksa25/_013_
*633 laststage/ksa25/_014_
*634 laststage/ksa25/_015_
*635 laststage/ksa25/_016_
*636 laststage/ksa25/_017_
*637 laststage/ksa25/_018_
*638 laststage/ksa25/_019_
*639 laststage/ksa25/_020_
*640 laststage/ksa25/_021_
*641 laststage/ksa25/_022_
*642 laststage/ksa25/_023_
*643 laststage/ksa25/_024_
*644 laststage/ksa25/_025_
*645 laststage/ksa25/_026_
*646 laststage/ksa25/_027_
*647 laststage/ksa25/_028_
*648 laststage/ksa25/_029_
*649 laststage/ksa25/_030_
*650 laststage/ksa25/_031_
*651 laststage/ksa25/_032_
*652 laststage/ksa25/_033_
*653 laststage/ksa25/_034_
*654 laststage/ksa25/_035_
*655 laststage/ksa25/_036_
*656 laststage/ksa25/_037_
*657 laststage/ksa25/_038_
*658 laststage/ksa25/_039_
*659 laststage/ksa25/_040_
*660 laststage/ksa25/_041_
*661 laststage/ksa25/_042_
*662 laststage/ksa25/_043_
*663 laststage/ksa25/_044_
*664 laststage/ksa25/_045_
*665 laststage/ksa25/_046_
*666 laststage/ksa25/_047_
*667 laststage/ksa25/_048_
*668 laststage/ksa25/_049_
*669 laststage/ksa25/_050_
*670 laststage/ksa25/_051_
*671 laststage/ksa25/_052_
*672 laststage/ksa25/_053_
*673 laststage/ksa25/_054_
*674 laststage/ksa25/_055_
*675 laststage/ksa25/_056_
*676 laststage/ksa25/_057_
*677 laststage/ksa25/_058_
*678 laststage/ksa25/_059_
*679 laststage/ksa25/_060_
*680 laststage/ksa25/_061_
*681 laststage/ksa25/_062_
*682 laststage/ksa25/_063_
*683 laststage/ksa25/_064_
*684 laststage/ksa25/_065_
*685 laststage/ksa25/_066_
*686 laststage/ksa25/_067_
*687 laststage/ksa25/_068_
*688 laststage/ksa25/_069_
*689 laststage/ksa25/_070_
*690 laststage/ksa25/_071_
*691 laststage/ksa25/_072_
*692 laststage/ksa25/_073_
*693 laststage/ksa25/_074_
*694 laststage/ksa25/_075_
*695 laststage/ksa25/_076_
*696 laststage/ksa25/_077_
*697 laststage/ksa25/_078_
*698 laststage/ksa25/_079_
*699 laststage/ksa25/_080_
*700 laststage/ksa25/_081_
*701 laststage/ksa25/_082_
*702 laststage/ksa25/_083_
*703 laststage/ksa25/_084_
*704 laststage/ksa25/_085_
*705 laststage/ksa25/_086_
*706 laststage/ksa25/_087_
*707 laststage/ksa25/_088_
*708 laststage/ksa25/_089_
*709 laststage/ksa25/_090_
*710 laststage/ksa25/_091_
*711 laststage/ksa25/_092_
*712 laststage/ksa25/_093_
*713 laststage/ksa25/_094_
*714 laststage/ksa25/_095_
*715 laststage/ksa25/_096_
*716 laststage/ksa25/_097_
*717 laststage/ksa25/_098_
*718 laststage/ksa25/_099_
*719 laststage/ksa25/_100_
*720 laststage/ksa25/_101_
*721 laststage/ksa25/_102_
*722 laststage/ksa25/_103_
*723 laststage/ksa25/_104_
*724 laststage/ksa25/_105_
*725 laststage/ksa25/_106_
*726 laststage/ksa25/_107_
*727 laststage/ksa25/_108_
*728 laststage/ksa25/_109_
*729 laststage/ksa25/_110_
*730 laststage/ksa25/_111_
*731 laststage/ksa25/_112_
*732 nextinp[0]
*733 nextinp[10]
*734 nextinp[11]
*735 nextinp[12]
*736 nextinp[13]
*737 nextinp[14]
*738 nextinp[15]
*739 nextinp[16]
*740 nextinp[17]
*741 nextinp[18]
*742 nextinp[19]
*743 nextinp[1]
*744 nextinp[20]
*745 nextinp[21]
*746 nextinp[22]
*747 nextinp[23]
*748 nextinp[24]
*749 nextinp[25]
*750 nextinp[26]
*751 nextinp[27]
*752 nextinp[28]
*753 nextinp[29]
*754 nextinp[2]
*755 nextinp[30]
*756 nextinp[31]
*757 nextinp[3]
*758 nextinp[4]
*759 nextinp[5]
*760 nextinp[6]
*761 nextinp[7]
*762 nextinp[8]
*763 nextinp[9]
*764 p\[0\][0]
*765 p\[0\][10]
*766 p\[0\][11]
*767 p\[0\][12]
*768 p\[0\][13]
*769 p\[0\][14]
*770 p\[0\][15]
*771 p\[0\][1]
*772 p\[0\][2]
*773 p\[0\][3]
*774 p\[0\][4]
*775 p\[0\][5]
*776 p\[0\][6]
*777 p\[0\][7]
*778 p\[0\][8]
*779 p\[0\][9]
*780 p\[10\][0]
*781 p\[10\][10]
*782 p\[10\][11]
*783 p\[10\][12]
*784 p\[10\][13]
*785 p\[10\][14]
*786 p\[10\][15]
*787 p\[10\][1]
*788 p\[10\][2]
*789 p\[10\][3]
*790 p\[10\][4]
*791 p\[10\][5]
*792 p\[10\][6]
*793 p\[10\][7]
*794 p\[10\][8]
*795 p\[10\][9]
*796 p\[11\][0]
*797 p\[11\][10]
*798 p\[11\][11]
*799 p\[11\][12]
*800 p\[11\][13]
*801 p\[11\][14]
*802 p\[11\][15]
*803 p\[11\][1]
*804 p\[11\][2]
*805 p\[11\][3]
*806 p\[11\][4]
*807 p\[11\][5]
*808 p\[11\][6]
*809 p\[11\][7]
*810 p\[11\][8]
*811 p\[11\][9]
*812 p\[12\][0]
*813 p\[12\][10]
*814 p\[12\][11]
*815 p\[12\][12]
*816 p\[12\][13]
*817 p\[12\][14]
*818 p\[12\][15]
*819 p\[12\][1]
*820 p\[12\][2]
*821 p\[12\][3]
*822 p\[12\][4]
*823 p\[12\][5]
*824 p\[12\][6]
*825 p\[12\][7]
*826 p\[12\][8]
*827 p\[12\][9]
*828 p\[13\][0]
*829 p\[13\][10]
*830 p\[13\][11]
*831 p\[13\][12]
*832 p\[13\][13]
*833 p\[13\][14]
*834 p\[13\][15]
*835 p\[13\][1]
*836 p\[13\][2]
*837 p\[13\][3]
*838 p\[13\][4]
*839 p\[13\][5]
*840 p\[13\][6]
*841 p\[13\][7]
*842 p\[13\][8]
*843 p\[13\][9]
*844 p\[14\][0]
*845 p\[14\][10]
*846 p\[14\][11]
*847 p\[14\][12]
*848 p\[14\][13]
*849 p\[14\][14]
*850 p\[14\][15]
*851 p\[14\][1]
*852 p\[14\][2]
*853 p\[14\][3]
*854 p\[14\][4]
*855 p\[14\][5]
*856 p\[14\][6]
*857 p\[14\][7]
*858 p\[14\][8]
*859 p\[14\][9]
*860 p\[15\][0]
*861 p\[15\][10]
*862 p\[15\][11]
*863 p\[15\][12]
*864 p\[15\][13]
*865 p\[15\][14]
*866 p\[15\][15]
*867 p\[15\][1]
*868 p\[15\][2]
*869 p\[15\][3]
*870 p\[15\][4]
*871 p\[15\][5]
*872 p\[15\][6]
*873 p\[15\][7]
*874 p\[15\][8]
*875 p\[15\][9]
*876 p\[1\][0]
*877 p\[1\][10]
*878 p\[1\][11]
*879 p\[1\][12]
*880 p\[1\][13]
*881 p\[1\][14]
*882 p\[1\][15]
*883 p\[1\][1]
*884 p\[1\][2]
*885 p\[1\][3]
*886 p\[1\][4]
*887 p\[1\][5]
*888 p\[1\][6]
*889 p\[1\][7]
*890 p\[1\][8]
*891 p\[1\][9]
*892 p\[2\][0]
*893 p\[2\][10]
*894 p\[2\][11]
*895 p\[2\][12]
*896 p\[2\][13]
*897 p\[2\][14]
*898 p\[2\][15]
*899 p\[2\][1]
*900 p\[2\][2]
*901 p\[2\][3]
*902 p\[2\][4]
*903 p\[2\][5]
*904 p\[2\][6]
*905 p\[2\][7]
*906 p\[2\][8]
*907 p\[2\][9]
*908 p\[3\][0]
*909 p\[3\][10]
*910 p\[3\][11]
*911 p\[3\][12]
*912 p\[3\][13]
*913 p\[3\][14]
*914 p\[3\][15]
*915 p\[3\][1]
*916 p\[3\][2]
*917 p\[3\][3]
*918 p\[3\][4]
*919 p\[3\][5]
*920 p\[3\][6]
*921 p\[3\][7]
*922 p\[3\][8]
*923 p\[3\][9]
*924 p\[4\][0]
*925 p\[4\][10]
*926 p\[4\][11]
*927 p\[4\][12]
*928 p\[4\][13]
*929 p\[4\][14]
*930 p\[4\][15]
*931 p\[4\][1]
*932 p\[4\][2]
*933 p\[4\][3]
*934 p\[4\][4]
*935 p\[4\][5]
*936 p\[4\][6]
*937 p\[4\][7]
*938 p\[4\][8]
*939 p\[4\][9]
*940 p\[5\][0]
*941 p\[5\][10]
*942 p\[5\][11]
*943 p\[5\][12]
*944 p\[5\][13]
*945 p\[5\][14]
*946 p\[5\][15]
*947 p\[5\][1]
*948 p\[5\][2]
*949 p\[5\][3]
*950 p\[5\][4]
*951 p\[5\][5]
*952 p\[5\][6]
*953 p\[5\][7]
*954 p\[5\][8]
*955 p\[5\][9]
*956 p\[6\][0]
*957 p\[6\][10]
*958 p\[6\][11]
*959 p\[6\][12]
*960 p\[6\][13]
*961 p\[6\][14]
*962 p\[6\][15]
*963 p\[6\][1]
*964 p\[6\][2]
*965 p\[6\][3]
*966 p\[6\][4]
*967 p\[6\][5]
*968 p\[6\][6]
*969 p\[6\][7]
*970 p\[6\][8]
*971 p\[6\][9]
*972 p\[7\][0]
*973 p\[7\][10]
*974 p\[7\][11]
*975 p\[7\][12]
*976 p\[7\][13]
*977 p\[7\][14]
*978 p\[7\][15]
*979 p\[7\][1]
*980 p\[7\][2]
*981 p\[7\][3]
*982 p\[7\][4]
*983 p\[7\][5]
*984 p\[7\][6]
*985 p\[7\][7]
*986 p\[7\][8]
*987 p\[7\][9]
*988 p\[8\][0]
*989 p\[8\][10]
*990 p\[8\][11]
*991 p\[8\][12]
*992 p\[8\][13]
*993 p\[8\][14]
*994 p\[8\][15]
*995 p\[8\][1]
*996 p\[8\][2]
*997 p\[8\][3]
*998 p\[8\][4]
*999 p\[8\][5]
*1000 p\[8\][6]
*1001 p\[8\][7]
*1002 p\[8\][8]
*1003 p\[8\][9]
*1004 p\[9\][0]
*1005 p\[9\][10]
*1006 p\[9\][11]
*1007 p\[9\][12]
*1008 p\[9\][13]
*1009 p\[9\][14]
*1010 p\[9\][15]
*1011 p\[9\][1]
*1012 p\[9\][2]
*1013 p\[9\][3]
*1014 p\[9\][4]
*1015 p\[9\][5]
*1016 p\[9\][6]
*1017 p\[9\][7]
*1018 p\[9\][8]
*1019 p\[9\][9]
*1020 s0[10]
*1021 s0[11]
*1022 s0[12]
*1023 s0[13]
*1024 s0[14]
*1025 s0[15]
*1026 s0[16]
*1027 s0[17]
*1028 s0[18]
*1029 s0[19]
*1030 s0[1]
*1031 s0[20]
*1032 s0[21]
*1033 s0[22]
*1034 s0[23]
*1035 s0[24]
*1036 s0[25]
*1037 s0[26]
*1038 s0[27]
*1039 s0[28]
*1040 s0[29]
*1041 s0[2]
*1042 s0[30]
*1043 s0[31]
*1044 s0[32]
*1045 s0[33]
*1046 s0[34]
*1047 s0[35]
*1048 s0[36]
*1049 s0[37]
*1050 s0[38]
*1051 s0[39]
*1052 s0[3]
*1053 s0[40]
*1054 s0[41]
*1055 s0[42]
*1056 s0[43]
*1057 s0[44]
*1058 s0[45]
*1059 s0[46]
*1060 s0[47]
*1061 s0[48]
*1062 s0[49]
*1063 s0[4]
*1064 s0[50]
*1065 s0[51]
*1066 s0[52]
*1067 s0[53]
*1068 s0[54]
*1069 s0[55]
*1070 s0[56]
*1071 s0[57]
*1072 s0[58]
*1073 s0[59]
*1074 s0[5]
*1075 s0[60]
*1076 s0[61]
*1077 s0[62]
*1078 s0[63]
*1079 s0[64]
*1080 s0[65]
*1081 s0[66]
*1082 s0[67]
*1083 s0[68]
*1084 s0[69]
*1085 s0[6]
*1086 s0[70]
*1087 s0[71]
*1088 s0[72]
*1089 s0[73]
*1090 s0[74]
*1091 s0[75]
*1092 s0[76]
*1093 s0[77]
*1094 s0[78]
*1095 s0[79]
*1096 s0[7]
*1097 s0[8]
*1098 s0[9]
*1099 s1[10]
*1100 s1[11]
*1101 s1[12]
*1102 s1[13]
*1103 s1[14]
*1104 s1[15]
*1105 s1[16]
*1106 s1[17]
*1107 s1[18]
*1108 s1[19]
*1109 s1[1]
*1110 s1[20]
*1111 s1[21]
*1112 s1[22]
*1113 s1[23]
*1114 s1[24]
*1115 s1[25]
*1116 s1[26]
*1117 s1[27]
*1118 s1[28]
*1119 s1[29]
*1120 s1[2]
*1121 s1[30]
*1122 s1[31]
*1123 s1[32]
*1124 s1[33]
*1125 s1[34]
*1126 s1[35]
*1127 s1[36]
*1128 s1[37]
*1129 s1[38]
*1130 s1[39]
*1131 s1[3]
*1132 s1[40]
*1133 s1[41]
*1134 s1[42]
*1135 s1[43]
*1136 s1[44]
*1137 s1[45]
*1138 s1[46]
*1139 s1[47]
*1140 s1[48]
*1141 s1[49]
*1142 s1[4]
*1143 s1[5]
*1144 s1[6]
*1145 s1[7]
*1146 s1[8]
*1147 s1[9]
*1148 s2[10]
*1149 s2[11]
*1150 s2[12]
*1151 s2[13]
*1152 s2[14]
*1153 s2[15]
*1154 s2[16]
*1155 s2[17]
*1156 s2[18]
*1157 s2[19]
*1158 s2[1]
*1159 s2[20]
*1160 s2[21]
*1161 s2[22]
*1162 s2[23]
*1163 s2[24]
*1164 s2[25]
*1165 s2[26]
*1166 s2[27]
*1167 s2[28]
*1168 s2[29]
*1169 s2[2]
*1170 s2[30]
*1171 s2[31]
*1172 s2[32]
*1173 s2[33]
*1174 s2[34]
*1175 s2[35]
*1176 s2[36]
*1177 s2[3]
*1178 s2[4]
*1179 s2[5]
*1180 s2[6]
*1181 s2[7]
*1182 s2[8]
*1183 s2[9]
*1184 s3[10]
*1185 s3[11]
*1186 s3[12]
*1187 s3[13]
*1188 s3[14]
*1189 s3[15]
*1190 s3[16]
*1191 s3[17]
*1192 s3[18]
*1193 s3[19]
*1194 s3[1]
*1195 s3[20]
*1196 s3[21]
*1197 s3[22]
*1198 s3[23]
*1199 s3[24]
*1200 s3[25]
*1201 s3[26]
*1202 s3[27]
*1203 s3[28]
*1204 s3[29]
*1205 s3[2]
*1206 s3[30]
*1207 s3[31]
*1208 s3[32]
*1209 s3[33]
*1210 s3[34]
*1211 s3[35]
*1212 s3[3]
*1213 s3[4]
*1214 s3[5]
*1215 s3[6]
*1216 s3[7]
*1217 s3[8]
*1218 s3[9]
*1219 s4[10]
*1220 s4[11]
*1221 s4[12]
*1222 s4[13]
*1223 s4[14]
*1224 s4[15]
*1225 s4[16]
*1226 s4[17]
*1227 s4[18]
*1228 s4[19]
*1229 s4[1]
*1230 s4[20]
*1231 s4[21]
*1232 s4[22]
*1233 s4[23]
*1234 s4[2]
*1235 s4[3]
*1236 s4[4]
*1237 s4[5]
*1238 s4[6]
*1239 s4[7]
*1240 s4[8]
*1241 s4[9]
*1242 s5[10]
*1243 s5[11]
*1244 s5[12]
*1245 s5[13]
*1246 s5[14]
*1247 s5[15]
*1248 s5[16]
*1249 s5[17]
*1250 s5[18]
*1251 s5[19]
*1252 s5[1]
*1253 s5[20]
*1254 s5[21]
*1255 s5[22]
*1256 s5[23]
*1257 s5[24]
*1258 s5[2]
*1259 s5[3]
*1260 s5[4]
*1261 s5[5]
*1262 s5[6]
*1263 s5[7]
*1264 s5[8]
*1265 s5[9]
*1266 sign
*1267 PHY_EDGE_ROW_0_Left_65
*1268 PHY_EDGE_ROW_0_Right_0
*1269 PHY_EDGE_ROW_10_Left_75
*1270 PHY_EDGE_ROW_10_Right_10
*1271 PHY_EDGE_ROW_11_Left_76
*1272 PHY_EDGE_ROW_11_Right_11
*1273 PHY_EDGE_ROW_12_Left_77
*1274 PHY_EDGE_ROW_12_Right_12
*1275 PHY_EDGE_ROW_13_Left_78
*1276 PHY_EDGE_ROW_13_Right_13
*1277 PHY_EDGE_ROW_14_Left_79
*1278 PHY_EDGE_ROW_14_Right_14
*1279 PHY_EDGE_ROW_15_Left_80
*1280 PHY_EDGE_ROW_15_Right_15
*1281 PHY_EDGE_ROW_16_Left_81
*1282 PHY_EDGE_ROW_16_Right_16
*1283 PHY_EDGE_ROW_17_Left_82
*1284 PHY_EDGE_ROW_17_Right_17
*1285 PHY_EDGE_ROW_18_Left_83
*1286 PHY_EDGE_ROW_18_Right_18
*1287 PHY_EDGE_ROW_19_Left_84
*1288 PHY_EDGE_ROW_19_Right_19
*1289 PHY_EDGE_ROW_1_Left_66
*1290 PHY_EDGE_ROW_1_Right_1
*1291 PHY_EDGE_ROW_20_Left_85
*1292 PHY_EDGE_ROW_20_Right_20
*1293 PHY_EDGE_ROW_21_Left_86
*1294 PHY_EDGE_ROW_21_Right_21
*1295 PHY_EDGE_ROW_22_Left_87
*1296 PHY_EDGE_ROW_22_Right_22
*1297 PHY_EDGE_ROW_23_Left_88
*1298 PHY_EDGE_ROW_23_Right_23
*1299 PHY_EDGE_ROW_24_Left_89
*1300 PHY_EDGE_ROW_24_Right_24
*1301 PHY_EDGE_ROW_25_Left_90
*1302 PHY_EDGE_ROW_25_Right_25
*1303 PHY_EDGE_ROW_26_Left_91
*1304 PHY_EDGE_ROW_26_Right_26
*1305 PHY_EDGE_ROW_27_Left_92
*1306 PHY_EDGE_ROW_27_Right_27
*1307 PHY_EDGE_ROW_28_Left_93
*1308 PHY_EDGE_ROW_28_Right_28
*1309 PHY_EDGE_ROW_29_Left_94
*1310 PHY_EDGE_ROW_29_Right_29
*1311 PHY_EDGE_ROW_2_Left_67
*1312 PHY_EDGE_ROW_2_Right_2
*1313 PHY_EDGE_ROW_30_Left_95
*1314 PHY_EDGE_ROW_30_Right_30
*1315 PHY_EDGE_ROW_31_Left_96
*1316 PHY_EDGE_ROW_31_Right_31
*1317 PHY_EDGE_ROW_32_Left_97
*1318 PHY_EDGE_ROW_32_Right_32
*1319 PHY_EDGE_ROW_33_Left_98
*1320 PHY_EDGE_ROW_33_Right_33
*1321 PHY_EDGE_ROW_34_Left_99
*1322 PHY_EDGE_ROW_34_Right_34
*1323 PHY_EDGE_ROW_35_Left_100
*1324 PHY_EDGE_ROW_35_Right_35
*1325 PHY_EDGE_ROW_36_Left_101
*1326 PHY_EDGE_ROW_36_Right_36
*1327 PHY_EDGE_ROW_37_Left_102
*1328 PHY_EDGE_ROW_37_Right_37
*1329 PHY_EDGE_ROW_38_Left_103
*1330 PHY_EDGE_ROW_38_Right_38
*1331 PHY_EDGE_ROW_39_Left_104
*1332 PHY_EDGE_ROW_39_Right_39
*1333 PHY_EDGE_ROW_3_Left_68
*1334 PHY_EDGE_ROW_3_Right_3
*1335 PHY_EDGE_ROW_40_Left_105
*1336 PHY_EDGE_ROW_40_Right_40
*1337 PHY_EDGE_ROW_41_Left_106
*1338 PHY_EDGE_ROW_41_Right_41
*1339 PHY_EDGE_ROW_42_Left_107
*1340 PHY_EDGE_ROW_42_Right_42
*1341 PHY_EDGE_ROW_43_Left_108
*1342 PHY_EDGE_ROW_43_Right_43
*1343 PHY_EDGE_ROW_44_Left_109
*1344 PHY_EDGE_ROW_44_Right_44
*1345 PHY_EDGE_ROW_45_Left_110
*1346 PHY_EDGE_ROW_45_Right_45
*1347 PHY_EDGE_ROW_46_Left_111
*1348 PHY_EDGE_ROW_46_Right_46
*1349 PHY_EDGE_ROW_47_Left_112
*1350 PHY_EDGE_ROW_47_Right_47
*1351 PHY_EDGE_ROW_48_Left_113
*1352 PHY_EDGE_ROW_48_Right_48
*1353 PHY_EDGE_ROW_49_Left_114
*1354 PHY_EDGE_ROW_49_Right_49
*1355 PHY_EDGE_ROW_4_Left_69
*1356 PHY_EDGE_ROW_4_Right_4
*1357 PHY_EDGE_ROW_50_Left_115
*1358 PHY_EDGE_ROW_50_Right_50
*1359 PHY_EDGE_ROW_51_Left_116
*1360 PHY_EDGE_ROW_51_Right_51
*1361 PHY_EDGE_ROW_52_Left_117
*1362 PHY_EDGE_ROW_52_Right_52
*1363 PHY_EDGE_ROW_53_Left_118
*1364 PHY_EDGE_ROW_53_Right_53
*1365 PHY_EDGE_ROW_54_Left_119
*1366 PHY_EDGE_ROW_54_Right_54
*1367 PHY_EDGE_ROW_55_Left_120
*1368 PHY_EDGE_ROW_55_Right_55
*1369 PHY_EDGE_ROW_56_Left_121
*1370 PHY_EDGE_ROW_56_Right_56
*1371 PHY_EDGE_ROW_57_Left_122
*1372 PHY_EDGE_ROW_57_Right_57
*1373 PHY_EDGE_ROW_58_Left_123
*1374 PHY_EDGE_ROW_58_Right_58
*1375 PHY_EDGE_ROW_59_Left_124
*1376 PHY_EDGE_ROW_59_Right_59
*1377 PHY_EDGE_ROW_5_Left_70
*1378 PHY_EDGE_ROW_5_Right_5
*1379 PHY_EDGE_ROW_60_Left_125
*1380 PHY_EDGE_ROW_60_Right_60
*1381 PHY_EDGE_ROW_61_Left_126
*1382 PHY_EDGE_ROW_61_Right_61
*1383 PHY_EDGE_ROW_62_Left_127
*1384 PHY_EDGE_ROW_62_Right_62
*1385 PHY_EDGE_ROW_63_Left_128
*1386 PHY_EDGE_ROW_63_Right_63
*1387 PHY_EDGE_ROW_64_Left_129
*1388 PHY_EDGE_ROW_64_Right_64
*1389 PHY_EDGE_ROW_6_Left_71
*1390 PHY_EDGE_ROW_6_Right_6
*1391 PHY_EDGE_ROW_7_Left_72
*1392 PHY_EDGE_ROW_7_Right_7
*1393 PHY_EDGE_ROW_8_Left_73
*1394 PHY_EDGE_ROW_8_Right_8
*1395 PHY_EDGE_ROW_9_Left_74
*1396 PHY_EDGE_ROW_9_Right_9
*1397 TAP_TAPCELL_ROW_0_130
*1398 TAP_TAPCELL_ROW_0_131
*1399 TAP_TAPCELL_ROW_0_132
*1400 TAP_TAPCELL_ROW_0_133
*1401 TAP_TAPCELL_ROW_0_134
*1402 TAP_TAPCELL_ROW_0_135
*1403 TAP_TAPCELL_ROW_0_136
*1404 TAP_TAPCELL_ROW_0_137
*1405 TAP_TAPCELL_ROW_0_138
*1406 TAP_TAPCELL_ROW_0_139
*1407 TAP_TAPCELL_ROW_0_140
*1408 TAP_TAPCELL_ROW_0_141
*1409 TAP_TAPCELL_ROW_0_142
*1410 TAP_TAPCELL_ROW_0_143
*1411 TAP_TAPCELL_ROW_0_144
*1412 TAP_TAPCELL_ROW_0_145
*1413 TAP_TAPCELL_ROW_0_146
*1414 TAP_TAPCELL_ROW_0_147
*1415 TAP_TAPCELL_ROW_10_229
*1416 TAP_TAPCELL_ROW_10_230
*1417 TAP_TAPCELL_ROW_10_231
*1418 TAP_TAPCELL_ROW_10_232
*1419 TAP_TAPCELL_ROW_10_233
*1420 TAP_TAPCELL_ROW_10_234
*1421 TAP_TAPCELL_ROW_10_235
*1422 TAP_TAPCELL_ROW_10_236
*1423 TAP_TAPCELL_ROW_10_237
*1424 TAP_TAPCELL_ROW_11_238
*1425 TAP_TAPCELL_ROW_11_239
*1426 TAP_TAPCELL_ROW_11_240
*1427 TAP_TAPCELL_ROW_11_241
*1428 TAP_TAPCELL_ROW_11_242
*1429 TAP_TAPCELL_ROW_11_243
*1430 TAP_TAPCELL_ROW_11_244
*1431 TAP_TAPCELL_ROW_11_245
*1432 TAP_TAPCELL_ROW_11_246
*1433 TAP_TAPCELL_ROW_12_247
*1434 TAP_TAPCELL_ROW_12_248
*1435 TAP_TAPCELL_ROW_12_249
*1436 TAP_TAPCELL_ROW_12_250
*1437 TAP_TAPCELL_ROW_12_251
*1438 TAP_TAPCELL_ROW_12_252
*1439 TAP_TAPCELL_ROW_12_253
*1440 TAP_TAPCELL_ROW_12_254
*1441 TAP_TAPCELL_ROW_12_255
*1442 TAP_TAPCELL_ROW_13_256
*1443 TAP_TAPCELL_ROW_13_257
*1444 TAP_TAPCELL_ROW_13_258
*1445 TAP_TAPCELL_ROW_13_259
*1446 TAP_TAPCELL_ROW_13_260
*1447 TAP_TAPCELL_ROW_13_261
*1448 TAP_TAPCELL_ROW_13_262
*1449 TAP_TAPCELL_ROW_13_263
*1450 TAP_TAPCELL_ROW_13_264
*1451 TAP_TAPCELL_ROW_14_265
*1452 TAP_TAPCELL_ROW_14_266
*1453 TAP_TAPCELL_ROW_14_267
*1454 TAP_TAPCELL_ROW_14_268
*1455 TAP_TAPCELL_ROW_14_269
*1456 TAP_TAPCELL_ROW_14_270
*1457 TAP_TAPCELL_ROW_14_271
*1458 TAP_TAPCELL_ROW_14_272
*1459 TAP_TAPCELL_ROW_14_273
*1460 TAP_TAPCELL_ROW_15_274
*1461 TAP_TAPCELL_ROW_15_275
*1462 TAP_TAPCELL_ROW_15_276
*1463 TAP_TAPCELL_ROW_15_277
*1464 TAP_TAPCELL_ROW_15_278
*1465 TAP_TAPCELL_ROW_15_279
*1466 TAP_TAPCELL_ROW_15_280
*1467 TAP_TAPCELL_ROW_15_281
*1468 TAP_TAPCELL_ROW_15_282
*1469 TAP_TAPCELL_ROW_16_283
*1470 TAP_TAPCELL_ROW_16_284
*1471 TAP_TAPCELL_ROW_16_285
*1472 TAP_TAPCELL_ROW_16_286
*1473 TAP_TAPCELL_ROW_16_287
*1474 TAP_TAPCELL_ROW_16_288
*1475 TAP_TAPCELL_ROW_16_289
*1476 TAP_TAPCELL_ROW_16_290
*1477 TAP_TAPCELL_ROW_16_291
*1478 TAP_TAPCELL_ROW_17_292
*1479 TAP_TAPCELL_ROW_17_293
*1480 TAP_TAPCELL_ROW_17_294
*1481 TAP_TAPCELL_ROW_17_295
*1482 TAP_TAPCELL_ROW_17_296
*1483 TAP_TAPCELL_ROW_17_297
*1484 TAP_TAPCELL_ROW_17_298
*1485 TAP_TAPCELL_ROW_17_299
*1486 TAP_TAPCELL_ROW_17_300
*1487 TAP_TAPCELL_ROW_18_301
*1488 TAP_TAPCELL_ROW_18_302
*1489 TAP_TAPCELL_ROW_18_303
*1490 TAP_TAPCELL_ROW_18_304
*1491 TAP_TAPCELL_ROW_18_305
*1492 TAP_TAPCELL_ROW_18_306
*1493 TAP_TAPCELL_ROW_18_307
*1494 TAP_TAPCELL_ROW_18_308
*1495 TAP_TAPCELL_ROW_18_309
*1496 TAP_TAPCELL_ROW_19_310
*1497 TAP_TAPCELL_ROW_19_311
*1498 TAP_TAPCELL_ROW_19_312
*1499 TAP_TAPCELL_ROW_19_313
*1500 TAP_TAPCELL_ROW_19_314
*1501 TAP_TAPCELL_ROW_19_315
*1502 TAP_TAPCELL_ROW_19_316
*1503 TAP_TAPCELL_ROW_19_317
*1504 TAP_TAPCELL_ROW_19_318
*1505 TAP_TAPCELL_ROW_1_148
*1506 TAP_TAPCELL_ROW_1_149
*1507 TAP_TAPCELL_ROW_1_150
*1508 TAP_TAPCELL_ROW_1_151
*1509 TAP_TAPCELL_ROW_1_152
*1510 TAP_TAPCELL_ROW_1_153
*1511 TAP_TAPCELL_ROW_1_154
*1512 TAP_TAPCELL_ROW_1_155
*1513 TAP_TAPCELL_ROW_1_156
*1514 TAP_TAPCELL_ROW_20_319
*1515 TAP_TAPCELL_ROW_20_320
*1516 TAP_TAPCELL_ROW_20_321
*1517 TAP_TAPCELL_ROW_20_322
*1518 TAP_TAPCELL_ROW_20_323
*1519 TAP_TAPCELL_ROW_20_324
*1520 TAP_TAPCELL_ROW_20_325
*1521 TAP_TAPCELL_ROW_20_326
*1522 TAP_TAPCELL_ROW_20_327
*1523 TAP_TAPCELL_ROW_21_328
*1524 TAP_TAPCELL_ROW_21_329
*1525 TAP_TAPCELL_ROW_21_330
*1526 TAP_TAPCELL_ROW_21_331
*1527 TAP_TAPCELL_ROW_21_332
*1528 TAP_TAPCELL_ROW_21_333
*1529 TAP_TAPCELL_ROW_21_334
*1530 TAP_TAPCELL_ROW_21_335
*1531 TAP_TAPCELL_ROW_21_336
*1532 TAP_TAPCELL_ROW_22_337
*1533 TAP_TAPCELL_ROW_22_338
*1534 TAP_TAPCELL_ROW_22_339
*1535 TAP_TAPCELL_ROW_22_340
*1536 TAP_TAPCELL_ROW_22_341
*1537 TAP_TAPCELL_ROW_22_342
*1538 TAP_TAPCELL_ROW_22_343
*1539 TAP_TAPCELL_ROW_22_344
*1540 TAP_TAPCELL_ROW_22_345
*1541 TAP_TAPCELL_ROW_23_346
*1542 TAP_TAPCELL_ROW_23_347
*1543 TAP_TAPCELL_ROW_23_348
*1544 TAP_TAPCELL_ROW_23_349
*1545 TAP_TAPCELL_ROW_23_350
*1546 TAP_TAPCELL_ROW_23_351
*1547 TAP_TAPCELL_ROW_23_352
*1548 TAP_TAPCELL_ROW_23_353
*1549 TAP_TAPCELL_ROW_23_354
*1550 TAP_TAPCELL_ROW_24_355
*1551 TAP_TAPCELL_ROW_24_356
*1552 TAP_TAPCELL_ROW_24_357
*1553 TAP_TAPCELL_ROW_24_358
*1554 TAP_TAPCELL_ROW_24_359
*1555 TAP_TAPCELL_ROW_24_360
*1556 TAP_TAPCELL_ROW_24_361
*1557 TAP_TAPCELL_ROW_24_362
*1558 TAP_TAPCELL_ROW_24_363
*1559 TAP_TAPCELL_ROW_25_364
*1560 TAP_TAPCELL_ROW_25_365
*1561 TAP_TAPCELL_ROW_25_366
*1562 TAP_TAPCELL_ROW_25_367
*1563 TAP_TAPCELL_ROW_25_368
*1564 TAP_TAPCELL_ROW_25_369
*1565 TAP_TAPCELL_ROW_25_370
*1566 TAP_TAPCELL_ROW_25_371
*1567 TAP_TAPCELL_ROW_25_372
*1568 TAP_TAPCELL_ROW_26_373
*1569 TAP_TAPCELL_ROW_26_374
*1570 TAP_TAPCELL_ROW_26_375
*1571 TAP_TAPCELL_ROW_26_376
*1572 TAP_TAPCELL_ROW_26_377
*1573 TAP_TAPCELL_ROW_26_378
*1574 TAP_TAPCELL_ROW_26_379
*1575 TAP_TAPCELL_ROW_26_380
*1576 TAP_TAPCELL_ROW_26_381