* SPICE netlist generated by Yosys 0.57+125 (git sha1 d5053033e, g++ 11.5.0 -fPIC -O3)

.SUBCKT _paramod_KoggeStoneAdder_WIDTH_s32'00000000000000000000000000011001 VDD VSS A.0 A.1 A.2 A.3 A.4 A.5 A.6 A.7 A.8 A.9 A.10 A.11 A.12 A.13 A.14 A.15 A.16 A.17 A.18 A.19 A.20 A.21 A.22 A.23 A.24 B.0 B.1 B.2 B.3 B.4 B.5 B.6 B.7 B.8 B.9 B.10 B.11 B.12 B.13 B.14 B.15 B.16 B.17 B.18 B.19 B.20 B.21 B.22 B.23 B.24 Cin Sum.0 Sum.1 Sum.2 Sum.3 Sum.4 Sum.5 Sum.6 Sum.7 Sum.8 Sum.9 Sum.10 Sum.11 Sum.12 Sum.13 Sum.14 Sum.15 Sum.16 Sum.17 Sum.18 Sum.19 Sum.20 Sum.21 Sum.22 Sum.23 Sum.24 Cout
X0 B.0 A.0 1 sky130_fd_sc_hd__xnor2_1
X1 Cin 1 Sum.0 sky130_fd_sc_hd__xnor2_1
X2 B.0 A.0 Cin 2 sky130_fd_sc_hd__maj3_1
X3 B.1 3 A.1 sky130_fd_sc_hd__lpflow_inputiso1p_1
X4 B.1 A.1 4 sky130_fd_sc_hd__and2_0
X5 B.1 A.1 5 sky130_fd_sc_hd__nand2_1
X6 3 5 6 sky130_fd_sc_hd__nand2_1
X7 2 6 Sum.1 sky130_fd_sc_hd__xnor2_1
X8 B.2 A.2 7 sky130_fd_sc_hd__nand2_1
X9 B.2 A.2 8 sky130_fd_sc_hd__xor2_1
X10 2 4 3 9 sky130_fd_sc_hd__o21ai_0
X11 8 9 Sum.2 sky130_fd_sc_hd__xnor2_1
X12 B.3 A.3 10 sky130_fd_sc_hd__nor2_1
X13 B.3 A.3 11 sky130_fd_sc_hd__nand2_1
X14 10 12 11 sky130_fd_sc_hd__nor2b_1
X15 B.2 A.2 2 4 13 3 sky130_fd_sc_hd__o221ai_1
X16 7 13 14 sky130_fd_sc_hd__and2_0
X17 12 14 Sum.3 sky130_fd_sc_hd__xnor2_1
X18 B.4 A.4 15 sky130_fd_sc_hd__nor2_1
X19 B.4 A.4 16 sky130_fd_sc_hd__nand2_1
X20 16 17 15 sky130_fd_sc_hd__nand2b_1
X21 10 14 11 18 sky130_fd_sc_hd__o21ai_0
X22 17 18 Sum.4 sky130_fd_sc_hd__xnor2_1
X23 B.5 A.5 19 sky130_fd_sc_hd__nor2_1
X24 B.5 A.5 20 sky130_fd_sc_hd__nand2_1
X25 20 21 19 sky130_fd_sc_hd__nand2b_1
X26 7 11 13 15 22 10 sky130_fd_sc_hd__a311o_1
X27 16 22 23 sky130_fd_sc_hd__nand2_1
X28 21 23 Sum.5 sky130_fd_sc_hd__xnor2_1
X29 B.6 A.6 24 sky130_fd_sc_hd__nand2_1
X30 B.6 A.6 25 sky130_fd_sc_hd__xnor2_1
X31 16 20 22 19 26 sky130_fd_sc_hd__a31oi_1
X32 16 20 22 25 27 19 sky130_fd_sc_hd__a311o_1
X33 25 26 Sum.6 sky130_fd_sc_hd__xnor2_1
X34 B.7 A.7 28 sky130_fd_sc_hd__nor2_1
X35 B.7 A.7 29 sky130_fd_sc_hd__xnor2_1
X36 24 27 30 sky130_fd_sc_hd__nand2_1
X37 29 30 Sum.7 sky130_fd_sc_hd__xnor2_1
X38 B.8 A.8 31 sky130_fd_sc_hd__nand2_1
X39 B.8 A.8 32 sky130_fd_sc_hd__xnor2_1
X40 B.6 A.6 B.7 A.7 33 sky130_fd_sc_hd__a22oi_1
X41 27 33 28 34 sky130_fd_sc_hd__a21oi_1
X42 27 33 32 35 28 sky130_fd_sc_hd__a211oi_1
X43 32 34 Sum.8 sky130_fd_sc_hd__xnor2_1
X44 B.9 36 A.9 sky130_fd_sc_hd__lpflow_inputiso1p_1
X45 B.9 A.9 37 sky130_fd_sc_hd__nand2_1
X46 36 37 38 sky130_fd_sc_hd__nand2_1
X47 B.8 A.8 35 39 sky130_fd_sc_hd__a21oi_1
X48 38 39 40 sky130_fd_sc_hd__nor2_1
X49 38 39 Sum.9 sky130_fd_sc_hd__xor2_1
X50 B.10 A.10 41 sky130_fd_sc_hd__nand2_1
X51 B.10 A.10 42 sky130_fd_sc_hd__xor2_1
X52 31 37 43 sky130_fd_sc_hd__nand2_1
X53 35 43 36 44 sky130_fd_sc_hd__o21ai_0
X54 35 43 42 45 36 sky130_fd_sc_hd__o211ai_1
X55 42 44 Sum.10 sky130_fd_sc_hd__xnor2_1
X56 B.11 A.11 46 sky130_fd_sc_hd__nor2_1
X57 B.11 A.11 47 sky130_fd_sc_hd__nand2_1
X58 47 48 46 sky130_fd_sc_hd__nand2b_1
X59 37 41 49 sky130_fd_sc_hd__nand2_1
X60 B.10 A.10 40 49 50 sky130_fd_sc_hd__o22ai_1
X61 48 50 Sum.11 sky130_fd_sc_hd__xor2_1
X62 B.12 A.12 51 sky130_fd_sc_hd__nand2_1
X63 B.12 A.12 52 sky130_fd_sc_hd__xnor2_1
X64 41 45 47 46 53 sky130_fd_sc_hd__a31oi_1
X65 41 45 47 52 54 46 sky130_fd_sc_hd__a311oi_1
X66 52 53 Sum.12 sky130_fd_sc_hd__xnor2_1
X67 B.13 55 A.13 sky130_fd_sc_hd__lpflow_inputiso1p_1
X68 B.13 A.13 56 sky130_fd_sc_hd__nand2_1
X69 55 56 57 sky130_fd_sc_hd__nand2_1
X70 B.12 A.12 54 58 sky130_fd_sc_hd__a21oi_1
X71 57 58 Sum.13 sky130_fd_sc_hd__xor2_1
X72 B.14 A.14 59 sky130_fd_sc_hd__nand2_1
X73 B.14 A.14 60 sky130_fd_sc_hd__xor2_1
X74 51 56 61 sky130_fd_sc_hd__nand2_1
X75 57 58 56 62 sky130_fd_sc_hd__o21ai_0
X76 54 61 60 63 55 sky130_fd_sc_hd__o211ai_1
X77 60 62 Sum.14 sky130_fd_sc_hd__xor2_1
X78 B.15 A.15 64 sky130_fd_sc_hd__nor2_1
X79 B.15 A.15 65 sky130_fd_sc_hd__nand2_1
X80 65 66 64 sky130_fd_sc_hd__nand2b_1
X81 B.14 A.14 62 67 sky130_fd_sc_hd__o21ai_0
X82 59 67 68 sky130_fd_sc_hd__nand2_1
X83 66 68 Sum.15 sky130_fd_sc_hd__xnor2_1
X84 B.16 A.16 69 sky130_fd_sc_hd__and2_0
X85 B.16 A.16 70 sky130_fd_sc_hd__xnor2_1
X86 59 63 65 64 71 sky130_fd_sc_hd__a31oi_1
X87 59 63 65 70 72 64 sky130_fd_sc_hd__a311oi_1
X88 70 71 Sum.16 sky130_fd_sc_hd__xnor2_1
X89 B.17 73 A.17 sky130_fd_sc_hd__lpflow_inputiso1p_1
X90 B.17 A.17 74 sky130_fd_sc_hd__nand2_1
X91 73 74 75 sky130_fd_sc_hd__nand2_1
X92 69 72 76 sky130_fd_sc_hd__nor2_1
X93 69 72 77 75 sky130_fd_sc_hd__o21bai_1
X94 75 76 Sum.17 sky130_fd_sc_hd__xor2_1
X95 B.18 A.18 78 sky130_fd_sc_hd__nor2_1
X96 78 79 sky130_fd_sc_hd__clkinv_1
X97 B.18 A.18 80 sky130_fd_sc_hd__nand2_1
X98 79 80 81 sky130_fd_sc_hd__nand2_1
X99 74 82 69 sky130_fd_sc_hd__nand2b_1
X100 72 82 73 83 sky130_fd_sc_hd__o21ai_0
X101 72 82 80 84 79 73 sky130_fd_sc_hd__o2111ai_1
X102 81 83 Sum.18 sky130_fd_sc_hd__xor2_1
X103 B.19 A.19 85 sky130_fd_sc_hd__nor2_1
X104 B.19 A.19 86 sky130_fd_sc_hd__nand2_1
X105 86 87 85 sky130_fd_sc_hd__nand2b_1
X106 74 77 80 78 88 sky130_fd_sc_hd__a31oi_1
X107 74 77 80 87 89 78 sky130_fd_sc_hd__a311o_1
X108 87 88 Sum.19 sky130_fd_sc_hd__xnor2_1
X109 B.20 A.20 90 sky130_fd_sc_hd__nor2_1
X110 B.20 A.20 91 sky130_fd_sc_hd__nand2_1
X111 91 92 90 sky130_fd_sc_hd__nand2b_1
X112 80 84 86 85 93 sky130_fd_sc_hd__a31oi_1
X113 80 84 86 92 94 85 sky130_fd_sc_hd__a311o_1
X114 92 93 Sum.20 sky130_fd_sc_hd__xnor2_1
X115 B.21 A.21 95 sky130_fd_sc_hd__nor2_1
X116 B.21 A.21 96 sky130_fd_sc_hd__nand2_1
X117 96 97 95 sky130_fd_sc_hd__nand2b_1
X118 86 89 91 90 98 sky130_fd_sc_hd__a31oi_1
X119 86 89 91 97 99 90 sky130_fd_sc_hd__a311o_1
X120 97 98 Sum.21 sky130_fd_sc_hd__xnor2_1
X121 B.22 A.22 100 sky130_fd_sc_hd__nor2_1
X122 B.22 A.22 101 sky130_fd_sc_hd__nand2_1
X123 101 102 100 sky130_fd_sc_hd__nand2b_1
X124 91 94 96 95 103 sky130_fd_sc_hd__a31oi_1
X125 91 94 96 102 104 95 sky130_fd_sc_hd__a311oi_1
X126 102 103 Sum.22 sky130_fd_sc_hd__xnor2_1
X127 B.23 A.23 105 sky130_fd_sc_hd__nand2_1
X128 B.23 A.23 106 sky130_fd_sc_hd__xnor2_1
X129 96 99 101 100 107 sky130_fd_sc_hd__a31oi_1
X130 96 99 101 106 108 100 sky130_fd_sc_hd__a311o_1
X131 106 107 Sum.23 sky130_fd_sc_hd__xnor2_1
X132 B.24 A.24 109 sky130_fd_sc_hd__nor2_1
X133 B.24 A.24 110 sky130_fd_sc_hd__nand2_1
X134 109 111 110 sky130_fd_sc_hd__nor2b_1
X135 101 105 112 sky130_fd_sc_hd__nand2_1
X136 B.23 A.23 104 112 113 sky130_fd_sc_hd__o22ai_1
X137 111 113 Sum.24 sky130_fd_sc_hd__xnor2_1
X138 105 108 110 109 Cout sky130_fd_sc_hd__a31oi_1
V0 Cin C.0 DC 0
V1 Cout C.25 DC 0
.ENDS _paramod_KoggeStoneAdder_WIDTH_s32'00000000000000000000000000011001

.SUBCKT _paramod_KoggeStoneAdder_WIDTH_s32'00000000000000000000000000100000 VDD VSS A.0 A.1 A.2 A.3 A.4 A.5 A.6 A.7 A.8 A.9 A.10 A.11 A.12 A.13 A.14 A.15 A.16 A.17 A.18 A.19 A.20 A.21 A.22 A.23 A.24 A.25 A.26 A.27 A.28 A.29 A.30 A.31 B.0 B.1 B.2 B.3 B.4 B.5 B.6 B.7 B.8 B.9 B.10 B.11 B.12 B.13 B.14 B.15 B.16 B.17 B.18 B.19 B.20 B.21 B.22 B.23 B.24 B.25 B.26 B.27 B.28 B.29 B.30 B.31 Cin Sum.0 Sum.1 Sum.2 Sum.3 Sum.4 Sum.5 Sum.6 Sum.7 Sum.8 Sum.9 Sum.10 Sum.11 Sum.12 Sum.13 Sum.14 Sum.15 Sum.16 Sum.17 Sum.18 Sum.19 Sum.20 Sum.21 Sum.22 Sum.23 Sum.24 Sum.25 Sum.26 Sum.27 Sum.28 Sum.29 Sum.30 Sum.31 Cout
X0 B.0 A.0 1 sky130_fd_sc_hd__xnor2_1
X1 Cin 1 Sum.0 sky130_fd_sc_hd__xnor2_1
X2 B.0 A.0 Cin 2 sky130_fd_sc_hd__maj3_1
X3 B.1 3 A.1 sky130_fd_sc_hd__lpflow_inputiso1p_1
X4 B.1 A.1 4 sky130_fd_sc_hd__and2_0
X5 B.1 A.1 5 sky130_fd_sc_hd__nand2_1
X6 3 5 6 sky130_fd_sc_hd__nand2_1
X7 2 6 Sum.1 sky130_fd_sc_hd__xnor2_1
X8 B.2 A.2 7 sky130_fd_sc_hd__nor2_1
X9 B.2 A.2 8 sky130_fd_sc_hd__xor2_1
X10 2 3 4 9 sky130_fd_sc_hd__a21oi_1
X11 8 9 Sum.2 sky130_fd_sc_hd__xnor2_1
X12 B.3 A.3 10 sky130_fd_sc_hd__nand2_1
X13 B.3 A.3 11 sky130_fd_sc_hd__xnor2_1
X14 B.2 A.2 2 3 12 4 sky130_fd_sc_hd__a221oi_1
X15 7 12 11 13 sky130_fd_sc_hd__o21a_1
X16 7 11 12 14 sky130_fd_sc_hd__nor3_1
X17 13 14 Sum.3 sky130_fd_sc_hd__nor2_1
X18 B.4 15 A.4 sky130_fd_sc_hd__lpflow_inputiso1p_1
X19 B.4 A.4 16 sky130_fd_sc_hd__nand2_1
X20 15 16 17 sky130_fd_sc_hd__nand2_1
X21 B.3 A.3 14 18 sky130_fd_sc_hd__a21oi_1
X22 17 18 Sum.4 sky130_fd_sc_hd__xor2_1
X23 B.5 19 A.5 sky130_fd_sc_hd__lpflow_inputiso1p_1
X24 B.5 A.5 20 sky130_fd_sc_hd__and2_0
X25 B.5 A.5 21 sky130_fd_sc_hd__nand2_1
X26 19 21 22 sky130_fd_sc_hd__nand2_1
X27 7 11 12 16 23 10 sky130_fd_sc_hd__o311ai_0
X28 15 23 24 sky130_fd_sc_hd__and2_0
X29 22 24 Sum.5 sky130_fd_sc_hd__xnor2_1
X30 19 24 20 25 sky130_fd_sc_hd__a21oi_1
X31 B.6 A.6 26 sky130_fd_sc_hd__nor2_1
X32 B.6 A.6 27 sky130_fd_sc_hd__and2_0
X33 26 27 28 sky130_fd_sc_hd__nor2_1
X34 25 28 Sum.6 sky130_fd_sc_hd__xnor2_1
X35 B.7 A.7 29 sky130_fd_sc_hd__nor2_1
X36 B.7 A.7 30 sky130_fd_sc_hd__nand2_1
X37 30 31 29 sky130_fd_sc_hd__nand2b_1
X38 15 19 23 27 32 20 sky130_fd_sc_hd__a311oi_1
X39 26 32 33 sky130_fd_sc_hd__nor2_1
X40 31 33 Sum.7 sky130_fd_sc_hd__xnor2_1
X41 B.8 A.8 34 sky130_fd_sc_hd__nor2_1
X42 B.8 A.8 35 sky130_fd_sc_hd__and2_0
X43 B.8 A.8 36 sky130_fd_sc_hd__nand2_1
X44 26 29 32 30 37 sky130_fd_sc_hd__o31a_1
X45 34 35 37 38 sky130_fd_sc_hd__or3_1
X46 34 35 37 39 sky130_fd_sc_hd__o21ai_0
X47 38 39 Sum.8 sky130_fd_sc_hd__and2_0
X48 B.9 A.9 40 sky130_fd_sc_hd__nor2_1
X49 B.9 A.9 41 sky130_fd_sc_hd__nand2_1
X50 40 42 41 sky130_fd_sc_hd__nor2b_1
X51 26 29 32 36 43 30 sky130_fd_sc_hd__o311a_1
X52 34 43 44 sky130_fd_sc_hd__nor2_1
X53 42 44 Sum.9 sky130_fd_sc_hd__xor2_1
X54 B.10 A.10 45 sky130_fd_sc_hd__nor2_1
X55 B.10 A.10 46 sky130_fd_sc_hd__nand2_1
X56 46 47 45 sky130_fd_sc_hd__nand2b_1
X57 36 38 41 40 48 sky130_fd_sc_hd__a31oi_1
X58 48 49 47 sky130_fd_sc_hd__nand2b_1
X59 47 48 Sum.10 sky130_fd_sc_hd__xnor2_1
X60 B.11 A.11 50 sky130_fd_sc_hd__nor2_1
X61 B.11 A.11 51 sky130_fd_sc_hd__nand2_1
X62 51 52 50 sky130_fd_sc_hd__nand2b_1
X63 34 40 43 46 53 41 sky130_fd_sc_hd__o311a_1
X64 45 53 54 sky130_fd_sc_hd__nor2_1
X65 52 54 Sum.11 sky130_fd_sc_hd__xnor2_1
X66 B.12 A.12 55 sky130_fd_sc_hd__nor2_1
X67 B.12 A.12 56 sky130_fd_sc_hd__nand2_1
X68 55 57 56 sky130_fd_sc_hd__nor2b_1
X69 57 58 sky130_fd_sc_hd__clkinv_1
X70 46 49 51 50 59 sky130_fd_sc_hd__a31oi_1
X71 58 59 Sum.12 sky130_fd_sc_hd__xnor2_1
X72 B.13 A.13 60 sky130_fd_sc_hd__nor2_1
X73 B.13 A.13 61 sky130_fd_sc_hd__nand2_1
X74 60 62 61 sky130_fd_sc_hd__nor2b_1
X75 51 56 55 63 sky130_fd_sc_hd__a21o_1
X76 45 52 53 58 63 64 sky130_fd_sc_hd__o41ai_1
X77 62 64 Sum.13 sky130_fd_sc_hd__xor2_1
X78 B.14 A.14 65 sky130_fd_sc_hd__nor2_1
X79 B.14 A.14 66 sky130_fd_sc_hd__nand2_1
X80 65 67 66 sky130_fd_sc_hd__nor2b_1
X81 56 60 61 68 sky130_fd_sc_hd__o21ai_0
X82 57 59 62 68 69 sky130_fd_sc_hd__a31oi_1
X83 67 69 Sum.14 sky130_fd_sc_hd__xnor2_1
X84 B.15 A.15 70 sky130_fd_sc_hd__nor2_1
X85 B.15 A.15 71 sky130_fd_sc_hd__nand2_1
X86 70 72 71 sky130_fd_sc_hd__nor2b_1
X87 61 66 65 73 sky130_fd_sc_hd__a21oi_1
X88 62 64 67 73 74 sky130_fd_sc_hd__a31oi_1
X89 72 74 Sum.15 sky130_fd_sc_hd__xnor2_1
X90 B.16 A.16 75 sky130_fd_sc_hd__nor2_1
X91 B.16 A.16 76 sky130_fd_sc_hd__nand2_1
X92 75 77 76 sky130_fd_sc_hd__nor2b_1
X93 65 69 71 78 66 sky130_fd_sc_hd__o211ai_1
X94 B.15 A.15 78 79 sky130_fd_sc_hd__o21ai_0
X95 77 79 Sum.16 sky130_fd_sc_hd__xnor2_1
X96 B.17 A.17 80 sky130_fd_sc_hd__nand2_1
X97 B.17 A.17 81 sky130_fd_sc_hd__xnor2_1
X98 70 74 76 82 71 sky130_fd_sc_hd__o211a_1
X99 75 82 83 sky130_fd_sc_hd__nor2_1
X100 75 81 82 84 sky130_fd_sc_hd__nor3_1
X101 81 83 Sum.17 sky130_fd_sc_hd__xnor2_1
X102 B.18 A.18 85 sky130_fd_sc_hd__nor2_1
X103 B.18 A.18 86 sky130_fd_sc_hd__nand2_1
X104 85 87 86 sky130_fd_sc_hd__nor2b_1
X105 75 81 82 80 88 sky130_fd_sc_hd__o31a_1
X106 87 88 Sum.18 sky130_fd_sc_hd__xnor2_1
X107 B.19 A.19 89 sky130_fd_sc_hd__nor2_1
X108 B.19 A.19 90 sky130_fd_sc_hd__xor2_1
X109 80 86 91 sky130_fd_sc_hd__nand2_1
X110 85 88 86 92 sky130_fd_sc_hd__o21ai_0
X111 B.18 A.18 84 91 93 90 sky130_fd_sc_hd__o221ai_1
X112 90 92 Sum.19 sky130_fd_sc_hd__xor2_1
X113 B.20 A.20 94 sky130_fd_sc_hd__nor2_1
X114 B.20 A.20 95 sky130_fd_sc_hd__nand2_1
X115 95 96 94 sky130_fd_sc_hd__nand2b_1
X116 96 97 sky130_fd_sc_hd__clkinv_1
X117 87 90 98 sky130_fd_sc_hd__nand2_1
X118 86 89 99 sky130_fd_sc_hd__nor2_1
X119 B.19 A.19 99 100 sky130_fd_sc_hd__a21oi_1
X120 88 98 100 101 sky130_fd_sc_hd__o21ai_0
X121 96 101 Sum.20 sky130_fd_sc_hd__xnor2_1
X122 B.21 A.21 102 sky130_fd_sc_hd__nor2_1
X123 B.21 A.21 103 sky130_fd_sc_hd__nand2_1
X124 102 104 103 sky130_fd_sc_hd__nor2b_1
X125 104 105 sky130_fd_sc_hd__clkinv_1
X126 B.19 A.19 B.20 A.20 106 sky130_fd_sc_hd__a22oi_1
X127 93 106 94 107 sky130_fd_sc_hd__a21oi_1
X128 104 107 108 sky130_fd_sc_hd__nor2_1
X129 93 106 105 109 94 sky130_fd_sc_hd__a211oi_1
X130 108 109 Sum.21 sky130_fd_sc_hd__nor2_1
X131 B.22 110 A.22 sky130_fd_sc_hd__lpflow_inputiso1p_1
X132 B.22 A.22 111 sky130_fd_sc_hd__nand2_1
X133 110 111 112 sky130_fd_sc_hd__and2_0
X134 95 102 103 113 sky130_fd_sc_hd__o21ai_0
X135 97 101 104 113 114 sky130_fd_sc_hd__a31oi_1
X136 112 114 Sum.22 sky130_fd_sc_hd__xnor2_1
X137 B.23 A.23 115 sky130_fd_sc_hd__nor2_1
X138 B.23 A.23 116 sky130_fd_sc_hd__xor2_1
X139 103 111 117 sky130_fd_sc_hd__nand2_1
X140 109 117 110 118 sky130_fd_sc_hd__o21ai_0
X141 109 117 116 119 110 sky130_fd_sc_hd__o211a_1
X142 116 118 Sum.23 sky130_fd_sc_hd__xnor2_1
X143 B.24 A.24 120 sky130_fd_sc_hd__xor2_1
X144 112 116 121 sky130_fd_sc_hd__nand2_1
X145 111 115 122 sky130_fd_sc_hd__nor2_1
X146 B.23 A.23 122 123 sky130_fd_sc_hd__a21oi_1
X147 114 121 123 124 sky130_fd_sc_hd__o21a_1
X148 120 124 Sum.24 sky130_fd_sc_hd__xnor2_1
X149 B.25 A.25 125 sky130_fd_sc_hd__nand2_1
X150 B.25 A.25 126 sky130_fd_sc_hd__xor2_1
X151 B.23 A.23 B.24 A.24 127 sky130_fd_sc_hd__a22o_1
X152 B.24 A.24 119 127 128 sky130_fd_sc_hd__o22ai_1
X153 B.24 A.24 119 127 129 126 sky130_fd_sc_hd__o221ai_1
X154 126 128 Sum.25 sky130_fd_sc_hd__xnor2_1
X155 B.25 A.25 B.24 130 A.24 sky130_fd_sc_hd__o211ai_1
X156 120 126 131 sky130_fd_sc_hd__nand2_1
X157 124 131 130 132 125 sky130_fd_sc_hd__o211a_1
X158 B.26 A.26 133 sky130_fd_sc_hd__nor2_1
X159 B.26 A.26 134 sky130_fd_sc_hd__nand2_1
X160 133 135 134 sky130_fd_sc_hd__nor2b_1
X161 132 135 Sum.26 sky130_fd_sc_hd__xnor2_1
X162 B.27 A.27 136 sky130_fd_sc_hd__nand2_1
X163 B.27 A.27 137 sky130_fd_sc_hd__xor2_1
X164 137 138 sky130_fd_sc_hd__clkinv_1
X165 125 129 134 133 139 sky130_fd_sc_hd__a31oi_1
X166 137 139 140 sky130_fd_sc_hd__nor2_1
X167 125 129 134 138 141 133 sky130_fd_sc_hd__a311oi_1
X168 140 141 Sum.27 sky130_fd_sc_hd__nor2_1
X169 B.28 142 A.28 sky130_fd_sc_hd__lpflow_inputiso1p_1
X170 B.28 A.28 143 sky130_fd_sc_hd__nand2_1
X171 142 143 144 sky130_fd_sc_hd__nand2_1
X172 134 136 145 sky130_fd_sc_hd__nand2_1
X173 B.27 A.27 145 146 sky130_fd_sc_hd__o21ai_0
X174 135 137 147 sky130_fd_sc_hd__nand2_1
X175 132 147 146 148 sky130_fd_sc_hd__o21ai_0
X176 144 148 Sum.28 sky130_fd_sc_hd__xnor2_1
X177 B.29 A.29 149 sky130_fd_sc_hd__nor2_1
X178 B.29 A.29 150 sky130_fd_sc_hd__nand2_1
X179 149 151 150 sky130_fd_sc_hd__nor2b_1
X180 136 143 152 sky130_fd_sc_hd__nand2_1
X181 141 152 142 153 sky130_fd_sc_hd__o21ai_0
X182 141 152 151 154 142 sky130_fd_sc_hd__o211ai_1
X183 151 153 Sum.29 sky130_fd_sc_hd__xnor2_1
X184 143 149 150 155 sky130_fd_sc_hd__o21ai_0
X185 142 143 148 151 155 156 sky130_fd_sc_hd__a41oi_1
X186 B.30 A.30 157 sky130_fd_sc_hd__nor2_1
X187 B.30 A.30 158 sky130_fd_sc_hd__nand2_1
X188 157 159 158 sky130_fd_sc_hd__nor2b_1
X189 156 159 Sum.30 sky130_fd_sc_hd__xnor2_1
X190 B.31 A.31 160 sky130_fd_sc_hd__nand2_1
X191 B.31 A.31 161 sky130_fd_sc_hd__xnor2_1
X192 150 154 158 157 162 sky130_fd_sc_hd__a31oi_1
X193 161 162 Sum.31 sky130_fd_sc_hd__xnor2_1
X194 156 157 158 163 160 sky130_fd_sc_hd__o211ai_1
X195 B.31 A.31 163 Cout sky130_fd_sc_hd__o21a_1
V0 Cin C.0 DC 0
V1 Cout C.32 DC 0
.ENDS _paramod_KoggeStoneAdder_WIDTH_s32'00000000000000000000000000100000

.SUBCKT _paramod_setfa_N_s32'00000000000000000000000000001101 VDD VSS a0.0 a0.1 a0.2 a0.3 a0.4 a0.5 a0.6 a0.7 a0.8 a0.9 a0.10 a0.11 a0.12 a1.0 a1.1 a1.2 a1.3 a1.4 a1.5 a1.6 a1.7 a1.8 a1.9 a1.10 a1.11 a1.12 a2.0 a2.1 a2.2 a2.3 a2.4 a2.5 a2.6 a2.7 a2.8 a2.9 a2.10 a2.11 a2.12 s.0 s.1 s.2 s.3 s.4 s.5 s.6 s.7 s.8 s.9 s.10 s.11 s.12 co.0 co.1 co.2 co.3 co.4 co.5 co.6 co.7 co.8 co.9 co.10 co.11 co.12
X0 VDD VSS a0.0 a1.0 a2.0 s.0 co.0 fa
X1 VDD VSS a0.10 a1.10 a2.10 s.10 co.10 fa
X2 VDD VSS a0.11 a1.11 a2.11 s.11 co.11 fa
X3 VDD VSS a0.12 a1.12 a2.12 s.12 co.12 fa
X4 VDD VSS a0.1 a1.1 a2.1 s.1 co.1 fa
X5 VDD VSS a0.2 a1.2 a2.2 s.2 co.2 fa
X6 VDD VSS a0.3 a1.3 a2.3 s.3 co.3 fa
X7 VDD VSS a0.4 a1.4 a2.4 s.4 co.4 fa
X8 VDD VSS a0.5 a1.5 a2.5 s.5 co.5 fa
X9 VDD VSS a0.6 a1.6 a2.6 s.6 co.6 fa
X10 VDD VSS a0.7 a1.7 a2.7 s.7 co.7 fa
X11 VDD VSS a0.8 a1.8 a2.8 s.8 co.8 fa
X12 VDD VSS a0.9 a1.9 a2.9 s.9 co.9 fa
.ENDS _paramod_setfa_N_s32'00000000000000000000000000001101

.SUBCKT _paramod_setfa_N_s32'00000000000000000000000000001110 VDD VSS a0.0 a0.1 a0.2 a0.3 a0.4 a0.5 a0.6 a0.7 a0.8 a0.9 a0.10 a0.11 a0.12 a0.13 a1.0 a1.1 a1.2 a1.3 a1.4 a1.5 a1.6 a1.7 a1.8 a1.9 a1.10 a1.11 a1.12 a1.13 a2.0 a2.1 a2.2 a2.3 a2.4 a2.5 a2.6 a2.7 a2.8 a2.9 a2.10 a2.11 a2.12 a2.13 s.0 s.1 s.2 s.3 s.4 s.5 s.6 s.7 s.8 s.9 s.10 s.11 s.12 s.13 co.0 co.1 co.2 co.3 co.4 co.5 co.6 co.7 co.8 co.9 co.10 co.11 co.12 co.13
X0 VDD VSS a0.0 a1.0 a2.0 s.0 co.0 fa
X1 VDD VSS a0.10 a1.10 a2.10 s.10 co.10 fa
X2 VDD VSS a0.11 a1.11 a2.11 s.11 co.11 fa
X3 VDD VSS a0.12 a1.12 a2.12 s.12 co.12 fa
X4 VDD VSS a0.13 a1.13 a2.13 s.13 co.13 fa
X5 VDD VSS a0.1 a1.1 a2.1 s.1 co.1 fa
X6 VDD VSS a0.2 a1.2 a2.2 s.2 co.2 fa
X7 VDD VSS a0.3 a1.3 a2.3 s.3 co.3 fa
X8 VDD VSS a0.4 a1.4 a2.4 s.4 co.4 fa
X9 VDD VSS a0.5 a1.5 a2.5 s.5 co.5 fa
X10 VDD VSS a0.6 a1.6 a2.6 s.6 co.6 fa
X11 VDD VSS a0.7 a1.7 a2.7 s.7 co.7 fa
X12 VDD VSS a0.8 a1.8 a2.8 s.8 co.8 fa
X13 VDD VSS a0.9 a1.9 a2.9 s.9 co.9 fa
.ENDS _paramod_setfa_N_s32'00000000000000000000000000001110

.SUBCKT _paramod_setfa_N_s32'00000000000000000000000000001111 VDD VSS a0.0 a0.1 a0.2 a0.3 a0.4 a0.5 a0.6 a0.7 a0.8 a0.9 a0.10 a0.11 a0.12 a0.13 a0.14 a1.0 a1.1 a1.2 a1.3 a1.4 a1.5 a1.6 a1.7 a1.8 a1.9 a1.10 a1.11 a1.12 a1.13 a1.14 a2.0 a2.1 a2.2 a2.3 a2.4 a2.5 a2.6 a2.7 a2.8 a2.9 a2.10 a2.11 a2.12 a2.13 a2.14 s.0 s.1 s.2 s.3 s.4 s.5 s.6 s.7 s.8 s.9 s.10 s.11 s.12 s.13 s.14 co.0 co.1 co.2 co.3 co.4 co.5 co.6 co.7 co.8 co.9 co.10 co.11 co.12 co.13 co.14
X0 VDD VSS a0.0 a1.0 a2.0 s.0 co.0 fa
X1 VDD VSS a0.10 a1.10 a2.10 s.10 co.10 fa
X2 VDD VSS a0.11 a1.11 a2.11 s.11 co.11 fa
X3 VDD VSS a0.12 a1.12 a2.12 s.12 co.12 fa
X4 VDD VSS a0.13 a1.13 a2.13 s.13 co.13 fa
X5 VDD VSS a0.14 a1.14 a2.14 s.14 co.14 fa
X6 VDD VSS a0.1 a1.1 a2.1 s.1 co.1 fa
X7 VDD VSS a0.2 a1.2 a2.2 s.2 co.2 fa
X8 VDD VSS a0.3 a1.3 a2.3 s.3 co.3 fa
X9 VDD VSS a0.4 a1.4 a2.4 s.4 co.4 fa
X10 VDD VSS a0.5 a1.5 a2.5 s.5 co.5 fa
X11 VDD VSS a0.6 a1.6 a2.6 s.6 co.6 fa
X12 VDD VSS a0.7 a1.7 a2.7 s.7 co.7 fa
X13 VDD VSS a0.8 a1.8 a2.8 s.8 co.8 fa
X14 VDD VSS a0.9 a1.9 a2.9 s.9 co.9 fa
.ENDS _paramod_setfa_N_s32'00000000000000000000000000001111

.SUBCKT _paramod_setha_N_s32'00000000000000000000000000000010 VDD VSS a0.0 a0.1 a1.0 a1.1 s.0 s.1 co.0 co.1
X0 VDD VSS a0.0 a1.0 s.0 co.0 ha
X1 VDD VSS a0.1 a1.1 s.1 co.1 ha
.ENDS _paramod_setha_N_s32'00000000000000000000000000000010

.SUBCKT _paramod_setha_N_s32'00000000000000000000000000000100 VDD VSS a0.0 a0.1 a0.2 a0.3 a1.0 a1.1 a1.2 a1.3 s.0 s.1 s.2 s.3 co.0 co.1 co.2 co.3
X0 VDD VSS a0.0 a1.0 s.0 co.0 ha
X1 VDD VSS a0.1 a1.1 s.1 co.1 ha
X2 VDD VSS a0.2 a1.2 s.2 co.2 ha
X3 VDD VSS a0.3 a1.3 s.3 co.3 ha
.ENDS _paramod_setha_N_s32'00000000000000000000000000000100

.SUBCKT _paramod_setha_N_s32'00000000000000000000000000000101 VDD VSS a0.0 a0.1 a0.2 a0.3 a0.4 a1.0 a1.1 a1.2 a1.3 a1.4 s.0 s.1 s.2 s.3 s.4 co.0 co.1 co.2 co.3 co.4
X0 VDD VSS a0.0 a1.0 s.0 co.0 ha
X1 VDD VSS a0.1 a1.1 s.1 co.1 ha
X2 VDD VSS a0.2 a1.2 s.2 co.2 ha
X3 VDD VSS a0.3 a1.3 s.3 co.3 ha
X4 VDD VSS a0.4 a1.4 s.4 co.4 ha
.ENDS _paramod_setha_N_s32'00000000000000000000000000000101

.SUBCKT _paramod_setha_N_s32'00000000000000000000000000000110 VDD VSS a0.0 a0.1 a0.2 a0.3 a0.4 a0.5 a1.0 a1.1 a1.2 a1.3 a1.4 a1.5 s.0 s.1 s.2 s.3 s.4 s.5 co.0 co.1 co.2 co.3 co.4 co.5
X0 VDD VSS a0.0 a1.0 s.0 co.0 ha
X1 VDD VSS a0.1 a1.1 s.1 co.1 ha
X2 VDD VSS a0.2 a1.2 s.2 co.2 ha
X3 VDD VSS a0.3 a1.3 s.3 co.3 ha
X4 VDD VSS a0.4 a1.4 s.4 co.4 ha
X5 VDD VSS a0.5 a1.5 s.5 co.5 ha
.ENDS _paramod_setha_N_s32'00000000000000000000000000000110

.SUBCKT _paramod_setha_N_s32'00000000000000000000000000001001 VDD VSS a0.0 a0.1 a0.2 a0.3 a0.4 a0.5 a0.6 a0.7 a0.8 a1.0 a1.1 a1.2 a1.3 a1.4 a1.5 a1.6 a1.7 a1.8 s.0 s.1 s.2 s.3 s.4 s.5 s.6 s.7 s.8 co.0 co.1 co.2 co.3 co.4 co.5 co.6 co.7 co.8
X0 VDD VSS a0.0 a1.0 s.0 co.0 ha
X1 VDD VSS a0.1 a1.1 s.1 co.1 ha
X2 VDD VSS a0.2 a1.2 s.2 co.2 ha
X3 VDD VSS a0.3 a1.3 s.3 co.3 ha
X4 VDD VSS a0.4 a1.4 s.4 co.4 ha
X5 VDD VSS a0.5 a1.5 s.5 co.5 ha
X6 VDD VSS a0.6 a1.6 s.6 co.6 ha
X7 VDD VSS a0.7 a1.7 s.7 co.7 ha
X8 VDD VSS a0.8 a1.8 s.8 co.8 ha
.ENDS _paramod_setha_N_s32'00000000000000000000000000001001

.SUBCKT _paramod_setha_N_s32'00000000000000000000000000001010 VDD VSS a0.0 a0.1 a0.2 a0.3 a0.4 a0.5 a0.6 a0.7 a0.8 a0.9 a1.0 a1.1 a1.2 a1.3 a1.4 a1.5 a1.6 a1.7 a1.8 a1.9 s.0 s.1 s.2 s.3 s.4 s.5 s.6 s.7 s.8 s.9 co.0 co.1 co.2 co.3 co.4 co.5 co.6 co.7 co.8 co.9
X0 VDD VSS a0.0 a1.0 s.0 co.0 ha
X1 VDD VSS a0.1 a1.1 s.1 co.1 ha
X2 VDD VSS a0.2 a1.2 s.2 co.2 ha
X3 VDD VSS a0.3 a1.3 s.3 co.3 ha
X4 VDD VSS a0.4 a1.4 s.4 co.4 ha
X5 VDD VSS a0.5 a1.5 s.5 co.5 ha
X6 VDD VSS a0.6 a1.6 s.6 co.6 ha
X7 VDD VSS a0.7 a1.7 s.7 co.7 ha
X8 VDD VSS a0.8 a1.8 s.8 co.8 ha
X9 VDD VSS a0.9 a1.9 s.9 co.9 ha
.ENDS _paramod_setha_N_s32'00000000000000000000000000001010

.SUBCKT KSA25 VDD VSS A.0 A.1 A.2 A.3 A.4 A.5 A.6 A.7 A.8 A.9 A.10 A.11 A.12 A.13 A.14 A.15 A.16 A.17 A.18 A.19 A.20 A.21 A.22 A.23 A.24 B.0 B.1 B.2 B.3 B.4 B.5 B.6 B.7 B.8 B.9 B.10 B.11 B.12 B.13 B.14 B.15 B.16 B.17 B.18 B.19 B.20 B.21 B.22 B.23 B.24 Cin Sum.0 Sum.1 Sum.2 Sum.3 Sum.4 Sum.5 Sum.6 Sum.7 Sum.8 Sum.9 Sum.10 Sum.11 Sum.12 Sum.13 Sum.14 Sum.15 Sum.16 Sum.17 Sum.18 Sum.19 Sum.20 Sum.21 Sum.22 Sum.23 Sum.24 Cout
X0 VDD VSS A.0 A.1 A.2 A.3 A.4 A.5 A.6 A.7 A.8 A.9 A.10 A.11 A.12 A.13 A.14 A.15 A.16 A.17 A.18 A.19 A.20 A.21 A.22 A.23 A.24 B.0 B.1 B.2 B.3 B.4 B.5 B.6 B.7 B.8 B.9 B.10 B.11 B.12 B.13 B.14 B.15 B.16 B.17 B.18 B.19 B.20 B.21 B.22 B.23 B.24 Cin Sum.0 Sum.1 Sum.2 Sum.3 Sum.4 Sum.5 Sum.6 Sum.7 Sum.8 Sum.9 Sum.10 Sum.11 Sum.12 Sum.13 Sum.14 Sum.15 Sum.16 Sum.17 Sum.18 Sum.19 Sum.20 Sum.21 Sum.22 Sum.23 Sum.24 Cout _paramod_KoggeStoneAdder_WIDTH_s32'00000000000000000000000000011001
.ENDS KSA25

.SUBCKT KSA32 VDD VSS A.0 A.1 A.2 A.3 A.4 A.5 A.6 A.7 A.8 A.9 A.10 A.11 A.12 A.13 A.14 A.15 A.16 A.17 A.18 A.19 A.20 A.21 A.22 A.23 A.24 A.25 A.26 A.27 A.28 A.29 A.30 A.31 B.0 B.1 B.2 B.3 B.4 B.5 B.6 B.7 B.8 B.9 B.10 B.11 B.12 B.13 B.14 B.15 B.16 B.17 B.18 B.19 B.20 B.21 B.22 B.23 B.24 B.25 B.26 B.27 B.28 B.29 B.30 B.31 Cin Sum.0 Sum.1 Sum.2 Sum.3 Sum.4 Sum.5 Sum.6 Sum.7 Sum.8 Sum.9 Sum.10 Sum.11 Sum.12 Sum.13 Sum.14 Sum.15 Sum.16 Sum.17 Sum.18 Sum.19 Sum.20 Sum.21 Sum.22 Sum.23 Sum.24 Sum.25 Sum.26 Sum.27 Sum.28 Sum.29 Sum.30 Sum.31 Cout
X0 VDD VSS A.0 A.1 A.2 A.3 A.4 A.5 A.6 A.7 A.8 A.9 A.10 A.11 A.12 A.13 A.14 A.15 A.16 A.17 A.18 A.19 A.20 A.21 A.22 A.23 A.24 A.25 A.26 A.27 A.28 A.29 A.30 A.31 B.0 B.1 B.2 B.3 B.4 B.5 B.6 B.7 B.8 B.9 B.10 B.11 B.12 B.13 B.14 B.15 B.16 B.17 B.18 B.19 B.20 B.21 B.22 B.23 B.24 B.25 B.26 B.27 B.28 B.29 B.30 B.31 Cin Sum.0 Sum.1 Sum.2 Sum.3 Sum.4 Sum.5 Sum.6 Sum.7 Sum.8 Sum.9 Sum.10 Sum.11 Sum.12 Sum.13 Sum.14 Sum.15 Sum.16 Sum.17 Sum.18 Sum.19 Sum.20 Sum.21 Sum.22 Sum.23 Sum.24 Sum.25 Sum.26 Sum.27 Sum.28 Sum.29 Sum.30 Sum.31 Cout _paramod_KoggeStoneAdder_WIDTH_s32'00000000000000000000000000100000
.ENDS KSA32

.SUBCKT fa VDD VSS a b c s ca
X0 b a c ca sky130_fd_sc_hd__maj3_1
X1 b a c s sky130_fd_sc_hd__xor3_1
.ENDS fa

.SUBCKT ha VDD VSS a b s ca
X0 b a ca sky130_fd_sc_hd__and2_0
X1 b a s sky130_fd_sc_hd__xor2_1
.ENDS ha

.SUBCKT inv32bits VDD VSS i.0 i.1 i.2 i.3 i.4 i.5 i.6 i.7 i.8 i.9 i.10 i.11 i.12 i.13 i.14 i.15 i.16 i.17 i.18 i.19 i.20 i.21 i.22 i.23 i.24 i.25 i.26 i.27 i.28 i.29 i.30 i.31 sign o.0 o.1 o.2 o.3 o.4 o.5 o.6 o.7 o.8 o.9 o.10 o.11 o.12 o.13 o.14 o.15 o.16 o.17 o.18 o.19 o.20 o.21 o.22 o.23 o.24 o.25 o.26 o.27 o.28 o.29 o.30 o.31
X0 sign i.0 o.0 sky130_fd_sc_hd__xor2_1
X1 sign i.1 o.1 sky130_fd_sc_hd__xor2_1
X2 sign i.2 o.2 sky130_fd_sc_hd__xor2_1
X3 sign i.3 o.3 sky130_fd_sc_hd__xor2_1
X4 sign i.4 o.4 sky130_fd_sc_hd__xor2_1
X5 sign i.5 o.5 sky130_fd_sc_hd__xor2_1
X6 sign i.6 o.6 sky130_fd_sc_hd__xor2_1
X7 sign i.7 o.7 sky130_fd_sc_hd__xor2_1
X8 sign i.8 o.8 sky130_fd_sc_hd__xor2_1
X9 sign i.9 o.9 sky130_fd_sc_hd__xor2_1
X10 sign i.10 o.10 sky130_fd_sc_hd__xor2_1
X11 sign i.11 o.11 sky130_fd_sc_hd__xor2_1
X12 sign i.12 o.12 sky130_fd_sc_hd__xor2_1
X13 sign i.13 o.13 sky130_fd_sc_hd__xor2_1
X14 sign i.14 o.14 sky130_fd_sc_hd__xor2_1
X15 sign i.15 o.15 sky130_fd_sc_hd__xor2_1
X16 sign i.16 o.16 sky130_fd_sc_hd__xor2_1
X17 sign i.17 o.17 sky130_fd_sc_hd__xor2_1
X18 sign i.18 o.18 sky130_fd_sc_hd__xor2_1
X19 sign i.19 o.19 sky130_fd_sc_hd__xor2_1
X20 sign i.20 o.20 sky130_fd_sc_hd__xor2_1
X21 sign i.21 o.21 sky130_fd_sc_hd__xor2_1
X22 sign i.22 o.22 sky130_fd_sc_hd__xor2_1
X23 sign i.23 o.23 sky130_fd_sc_hd__xor2_1
X24 sign i.24 o.24 sky130_fd_sc_hd__xor2_1
X25 sign i.25 o.25 sky130_fd_sc_hd__xor2_1
X26 sign i.26 o.26 sky130_fd_sc_hd__xor2_1
X27 sign i.27 o.27 sky130_fd_sc_hd__xor2_1
X28 sign i.28 o.28 sky130_fd_sc_hd__xor2_1
X29 sign i.29 o.29 sky130_fd_sc_hd__xor2_1
X30 sign i.30 o.30 sky130_fd_sc_hd__xor2_1
X31 sign i.31 o.31 sky130_fd_sc_hd__xor2_1
.ENDS inv32bits

.SUBCKT wallace1 VDD VSS a.0 a.1 a.2 a.3 a.4 a.5 a.6 a.7 a.8 a.9 a.10 a.11 a.12 a.13 a.14 a.15 b.0 b.1 b.2 b.3 b.4 b.5 b.6 b.7 b.8 b.9 b.10 b.11 b.12 b.13 b.14 b.15 out.0 out.1 out.2 out.3 out.4 out.5 out.6 out.7 out.8 out.9 out.10 out.11 out.12 out.13 out.14 out.15 out.16 out.17 out.18 out.19 out.20 out.21 out.22 out.23 out.24 out.25 out.26 out.27 out.28 out.29 out.30 out.31
X0 b.15 1 sky130_fd_sc_hd__clkinv_1
X1 a.15 2 sky130_fd_sc_hd__clkinv_1
X2 b.15 a.15 sign sky130_fd_sc_hd__xor2_1
X3 b.0 a.0 p_0_.0 sky130_fd_sc_hd__and2_0
X4 a.0 a.1 a.15 3 sky130_fd_sc_hd__o21ai_0
X5 a.0 a.1 3 4 sky130_fd_sc_hd__a21oi_1
X6 2 a.1 4 5 sky130_fd_sc_hd__a21oi_1
X7 b.0 p_0_.1 5 sky130_fd_sc_hd__lpflow_isobufsrc_1
X8 a.2 3 6 sky130_fd_sc_hd__xor2_1
X9 b.0 p_0_.2 6 sky130_fd_sc_hd__lpflow_isobufsrc_1
X10 a.0 a.1 a.2 a.15 7 sky130_fd_sc_hd__o31ai_1
X11 a.3 7 8 sky130_fd_sc_hd__xor2_1
X12 b.0 p_0_.3 8 sky130_fd_sc_hd__lpflow_isobufsrc_1
X13 a.0 a.1 a.2 a.3 9 sky130_fd_sc_hd__or4_1
X14 a.15 9 10 sky130_fd_sc_hd__nand2_1
X15 a.4 10 11 sky130_fd_sc_hd__xor2_1
X16 b.0 p_0_.4 11 sky130_fd_sc_hd__lpflow_isobufsrc_1
X17 a.4 9 a.15 12 sky130_fd_sc_hd__o21ai_0
X18 a.5 12 13 sky130_fd_sc_hd__xor2_1
X19 b.0 p_0_.5 13 sky130_fd_sc_hd__lpflow_isobufsrc_1
X20 a.4 a.5 9 a.15 14 sky130_fd_sc_hd__o31ai_1
X21 a.6 14 15 sky130_fd_sc_hd__xor2_1
X22 b.0 p_0_.6 15 sky130_fd_sc_hd__lpflow_isobufsrc_1
X23 a.4 a.5 a.6 9 16 sky130_fd_sc_hd__nor4_1
X24 2 16 17 sky130_fd_sc_hd__nor2_1
X25 a.7 17 18 sky130_fd_sc_hd__xnor2_1
X26 b.0 p_0_.7 18 sky130_fd_sc_hd__lpflow_isobufsrc_1
X27 16 19 a.7 sky130_fd_sc_hd__nand2b_1
X28 a.15 19 20 sky130_fd_sc_hd__nand2_1
X29 a.8 20 21 sky130_fd_sc_hd__xor2_1
X30 b.0 p_0_.8 21 sky130_fd_sc_hd__lpflow_isobufsrc_1
X31 a.8 19 a.15 22 sky130_fd_sc_hd__o21ai_0
X32 a.9 22 23 sky130_fd_sc_hd__xor2_1
X33 b.0 p_0_.9 23 sky130_fd_sc_hd__lpflow_isobufsrc_1
X34 a.8 a.9 19 a.15 24 sky130_fd_sc_hd__o31ai_1
X35 a.10 24 25 sky130_fd_sc_hd__xor2_1
X36 b.0 p_0_.10 25 sky130_fd_sc_hd__lpflow_isobufsrc_1
X37 a.8 a.9 a.10 19 26 sky130_fd_sc_hd__or4_1
X38 a.15 26 27 sky130_fd_sc_hd__nand2_1
X39 a.11 27 28 sky130_fd_sc_hd__xor2_1
X40 b.0 p_0_.11 28 sky130_fd_sc_hd__lpflow_isobufsrc_1
X41 a.11 26 a.15 29 sky130_fd_sc_hd__o21ai_0
X42 a.12 29 30 sky130_fd_sc_hd__xor2_1
X43 b.0 p_0_.12 30 sky130_fd_sc_hd__lpflow_isobufsrc_1
X44 a.11 a.12 26 a.15 31 sky130_fd_sc_hd__o31ai_1
X45 a.13 31 32 sky130_fd_sc_hd__xor2_1
X46 b.0 p_0_.13 32 sky130_fd_sc_hd__lpflow_isobufsrc_1
X47 a.11 a.12 a.13 26 33 sky130_fd_sc_hd__or4_1
X48 a.11 a.12 a.13 26 a.15 34 sky130_fd_sc_hd__o41ai_1
X49 a.14 34 35 sky130_fd_sc_hd__xor2_1
X50 b.0 p_0_.14 35 sky130_fd_sc_hd__lpflow_isobufsrc_1
X51 2 a.14 33 36 sky130_fd_sc_hd__or3_1
X52 b.0 p_0_.15 36 sky130_fd_sc_hd__lpflow_isobufsrc_1
X53 b.0 b.1 b.15 37 sky130_fd_sc_hd__o21ai_0
X54 b.0 b.1 37 38 sky130_fd_sc_hd__a21oi_1
X55 1 b.1 38 39 sky130_fd_sc_hd__a21oi_1
X56 a.0 p_1_.0 39 sky130_fd_sc_hd__lpflow_isobufsrc_1
X57 5 39 p_1_.1 sky130_fd_sc_hd__nor2_1
X58 6 39 p_1_.2 sky130_fd_sc_hd__nor2_1
X59 8 39 p_1_.3 sky130_fd_sc_hd__nor2_1
X60 11 39 p_1_.4 sky130_fd_sc_hd__nor2_1
X61 13 39 p_1_.5 sky130_fd_sc_hd__nor2_1
X62 15 39 p_1_.6 sky130_fd_sc_hd__nor2_1
X63 18 39 p_1_.7 sky130_fd_sc_hd__nor2_1
X64 21 39 p_1_.8 sky130_fd_sc_hd__nor2_1
X65 23 39 p_1_.9 sky130_fd_sc_hd__nor2_1
X66 25 39 p_1_.10 sky130_fd_sc_hd__nor2_1
X67 28 39 p_1_.11 sky130_fd_sc_hd__nor2_1
X68 30 39 p_1_.12 sky130_fd_sc_hd__nor2_1
X69 32 39 p_1_.13 sky130_fd_sc_hd__nor2_1
X70 35 39 p_1_.14 sky130_fd_sc_hd__nor2_1
X71 36 39 p_1_.15 sky130_fd_sc_hd__nor2_1
X72 b.2 37 40 sky130_fd_sc_hd__xor2_1
X73 a.0 p_2_.0 40 sky130_fd_sc_hd__lpflow_isobufsrc_1
X74 5 40 p_2_.1 sky130_fd_sc_hd__nor2_1
X75 6 40 p_2_.2 sky130_fd_sc_hd__nor2_1
X76 8 40 p_2_.3 sky130_fd_sc_hd__nor2_1
X77 11 40 p_2_.4 sky130_fd_sc_hd__nor2_1
X78 13 40 p_2_.5 sky130_fd_sc_hd__nor2_1
X79 15 40 p_2_.6 sky130_fd_sc_hd__nor2_1
X80 18 40 p_2_.7 sky130_fd_sc_hd__nor2_1
X81 21 40 p_2_.8 sky130_fd_sc_hd__nor2_1
X82 23 40 p_2_.9 sky130_fd_sc_hd__nor2_1
X83 25 40 p_2_.10 sky130_fd_sc_hd__nor2_1
X84 28 40 p_2_.11 sky130_fd_sc_hd__nor2_1
X85 30 40 p_2_.12 sky130_fd_sc_hd__nor2_1
X86 32 40 p_2_.13 sky130_fd_sc_hd__nor2_1
X87 35 40 p_2_.14 sky130_fd_sc_hd__nor2_1
X88 36 40 p_2_.15 sky130_fd_sc_hd__nor2_1
X89 b.0 b.1 b.2 b.15 41 sky130_fd_sc_hd__o31ai_1
X90 b.3 41 42 sky130_fd_sc_hd__xor2_1
X91 a.0 p_3_.0 42 sky130_fd_sc_hd__lpflow_isobufsrc_1
X92 5 42 p_3_.1 sky130_fd_sc_hd__nor2_1
X93 6 42 p_3_.2 sky130_fd_sc_hd__nor2_1
X94 8 42 p_3_.3 sky130_fd_sc_hd__nor2_1