*SPEF "ieee 1481-1999"
*DESIGN "eb_adder_top"
*DATE "12:59:07 Thursday October 30, 2025"
*VENDOR "The OpenROAD Project"
*PROGRAM "OpenROAD"
*VERSION "v2.0-24548-g4fa65c3a24"
*DESIGN_FLOW "NAME_SCOPE LOCAL" "PIN_CAP NONE"
*DIVIDER /
*DELIMITER :
*BUS_DELIMITER []
*T_UNIT 1 NS
*C_UNIT 1 PF
*R_UNIT 1 OHM
*L_UNIT 1 HENRY

*NAME_MAP
*1 A[0]
*2 A[1]
*3 A[2]
*4 A[3]
*5 A[4]
*6 A[5]
*7 A[6]
*8 A[7]
*9 B[0]
*10 B[1]
*11 B[2]
*12 B[3]
*13 B[4]
*14 B[5]
*15 B[6]
*16 B[7]
*17 Cin
*18 Cout
*21 Y[0]
*22 Y[1]
*23 Y[2]
*24 Y[3]
*25 Y[4]
*26 Y[5]
*27 Y[6]
*28 Y[7]
*29 UUT/C1/_00_
*30 UUT/C1/_01_
*31 UUT/C1/_02_
*32 UUT/C1/_03_
*33 UUT/C1/_04_
*34 UUT/C1/_05_
*35 UUT/C1/_06_
*36 UUT/C2/_00_
*37 UUT/C2/_01_
*38 UUT/C2/_02_
*39 UUT/C2/_03_
*40 UUT/C2/_04_
*41 UUT/C2/_05_
*42 UUT/C2/_06_
*43 UUT/x
*44 PHY_EDGE_ROW_0_Left_102
*45 PHY_EDGE_ROW_0_Right_0
*46 PHY_EDGE_ROW_100_Left_202
*47 PHY_EDGE_ROW_100_Right_100
*48 PHY_EDGE_ROW_101_Left_203
*49 PHY_EDGE_ROW_101_Right_101
*50 PHY_EDGE_ROW_10_Left_112
*51 PHY_EDGE_ROW_10_Right_10
*52 PHY_EDGE_ROW_11_Left_113
*53 PHY_EDGE_ROW_11_Right_11
*54 PHY_EDGE_ROW_12_Left_114
*55 PHY_EDGE_ROW_12_Right_12
*56 PHY_EDGE_ROW_13_Left_115
*57 PHY_EDGE_ROW_13_Right_13
*58 PHY_EDGE_ROW_14_Left_116
*59 PHY_EDGE_ROW_14_Right_14
*60 PHY_EDGE_ROW_15_Left_117
*61 PHY_EDGE_ROW_15_Right_15
*62 PHY_EDGE_ROW_16_Left_118
*63 PHY_EDGE_ROW_16_Right_16
*64 PHY_EDGE_ROW_17_Left_119
*65 PHY_EDGE_ROW_17_Right_17
*66 PHY_EDGE_ROW_18_Left_120
*67 PHY_EDGE_ROW_18_Right_18
*68 PHY_EDGE_ROW_19_Left_121
*69 PHY_EDGE_ROW_19_Right_19
*70 PHY_EDGE_ROW_1_Left_103
*71 PHY_EDGE_ROW_1_Right_1
*72 PHY_EDGE_ROW_20_Left_122
*73 PHY_EDGE_ROW_20_Right_20
*74 PHY_EDGE_ROW_21_Left_123
*75 PHY_EDGE_ROW_21_Right_21
*76 PHY_EDGE_ROW_22_Left_124
*77 PHY_EDGE_ROW_22_Right_22
*78 PHY_EDGE_ROW_23_Left_125
*79 PHY_EDGE_ROW_23_Right_23
*80 PHY_EDGE_ROW_24_Left_126
*81 PHY_EDGE_ROW_24_Right_24
*82 PHY_EDGE_ROW_25_Left_127
*83 PHY_EDGE_ROW_25_Right_25
*84 PHY_EDGE_ROW_26_Left_128
*85 PHY_EDGE_ROW_26_Right_26
*86 PHY_EDGE_ROW_27_Left_129
*87 PHY_EDGE_ROW_27_Right_27
*88 PHY_EDGE_ROW_28_Left_130
*89 PHY_EDGE_ROW_28_Right_28
*90 PHY_EDGE_ROW_29_Left_131
*91 PHY_EDGE_ROW_29_Right_29
*92 PHY_EDGE_ROW_2_Left_104
*93 PHY_EDGE_ROW_2_Right_2
*94 PHY_EDGE_ROW_30_Left_132
*95 PHY_EDGE_ROW_30_Right_30
*96 PHY_EDGE_ROW_31_Left_133
*97 PHY_EDGE_ROW_31_Right_31
*98 PHY_EDGE_ROW_32_Left_134
*99 PHY_EDGE_ROW_32_Right_32
*100 PHY_EDGE_ROW_33_Left_135
*101 PHY_EDGE_ROW_33_Right_33
*102 PHY_EDGE_ROW_34_Left_136
*103 PHY_EDGE_ROW_34_Right_34
*104 PHY_EDGE_ROW_35_Left_137
*105 PHY_EDGE_ROW_35_Right_35
*106 PHY_EDGE_ROW_36_Left_138
*107 PHY_EDGE_ROW_36_Right_36
*108 PHY_EDGE_ROW_37_Left_139
*109 PHY_EDGE_ROW_37_Right_37
*110 PHY_EDGE_ROW_38_Left_140
*111 PHY_EDGE_ROW_38_Right_38
*112 PHY_EDGE_ROW_39_Left_141
*113 PHY_EDGE_ROW_39_Right_39
*114 PHY_EDGE_ROW_3_Left_105
*115 PHY_EDGE_ROW_3_Right_3
*116 PHY_EDGE_ROW_40_Left_142
*117 PHY_EDGE_ROW_40_Right_40
*118 PHY_EDGE_ROW_41_Left_143
*119 PHY_EDGE_ROW_41_Right_41
*120 PHY_EDGE_ROW_42_Left_144
*121 PHY_EDGE_ROW_42_Right_42
*122 PHY_EDGE_ROW_43_Left_145
*123 PHY_EDGE_ROW_43_Right_43
*124 PHY_EDGE_ROW_44_Left_146
*125 PHY_EDGE_ROW_44_Right_44
*126 PHY_EDGE_ROW_45_Left_147
*127 PHY_EDGE_ROW_45_Right_45
*128 PHY_EDGE_ROW_46_Left_148
*129 PHY_EDGE_ROW_46_Right_46
*130 PHY_EDGE_ROW_47_Left_149
*131 PHY_EDGE_ROW_47_Right_47
*132 PHY_EDGE_ROW_48_Left_150
*133 PHY_EDGE_ROW_48_Right_48
*134 PHY_EDGE_ROW_49_Left_151
*135 PHY_EDGE_ROW_49_Right_49
*136 PHY_EDGE_ROW_4_Left_106
*137 PHY_EDGE_ROW_4_Right_4
*138 PHY_EDGE_ROW_50_Left_152
*139 PHY_EDGE_ROW_50_Right_50
*140 PHY_EDGE_ROW_51_Left_153
*141 PHY_EDGE_ROW_51_Right_51
*142 PHY_EDGE_ROW_52_Left_154
*143 PHY_EDGE_ROW_52_Right_52
*144 PHY_EDGE_ROW_53_Left_155
*145 PHY_EDGE_ROW_53_Right_53
*146 PHY_EDGE_ROW_54_Left_156
*147 PHY_EDGE_ROW_54_Right_54
*148 PHY_EDGE_ROW_55_Left_157
*149 PHY_EDGE_ROW_55_Right_55
*150 PHY_EDGE_ROW_56_Left_158
*151 PHY_EDGE_ROW_56_Right_56
*152 PHY_EDGE_ROW_57_Left_159
*153 PHY_EDGE_ROW_57_Right_57
*154 PHY_EDGE_ROW_58_Left_160
*155 PHY_EDGE_ROW_58_Right_58
*156 PHY_EDGE_ROW_59_Left_161
*157 PHY_EDGE_ROW_59_Right_59
*158 PHY_EDGE_ROW_5_Left_107
*159 PHY_EDGE_ROW_5_Right_5
*160 PHY_EDGE_ROW_60_Left_162
*161 PHY_EDGE_ROW_60_Right_60
*162 PHY_EDGE_ROW_61_Left_163
*163 PHY_EDGE_ROW_61_Right_61
*164 PHY_EDGE_ROW_62_Left_164
*165 PHY_EDGE_ROW_62_Right_62
*166 PHY_EDGE_ROW_63_Left_165
*167 PHY_EDGE_ROW_63_Right_63
*168 PHY_EDGE_ROW_64_Left_166
*169 PHY_EDGE_ROW_64_Right_64
*170 PHY_EDGE_ROW_65_Left_167
*171 PHY_EDGE_ROW_65_Right_65
*172 PHY_EDGE_ROW_66_Left_168
*173 PHY_EDGE_ROW_66_Right_66
*174 PHY_EDGE_ROW_67_Left_169
*175 PHY_EDGE_ROW_67_Right_67
*176 PHY_EDGE_ROW_68_Left_170
*177 PHY_EDGE_ROW_68_Right_68
*178 PHY_EDGE_ROW_69_Left_171
*179 PHY_EDGE_ROW_69_Right_69
*180 PHY_EDGE_ROW_6_Left_108
*181 PHY_EDGE_ROW_6_Right_6
*182 PHY_EDGE_ROW_70_Left_172
*183 PHY_EDGE_ROW_70_Right_70
*184 PHY_EDGE_ROW_71_Left_173
*185 PHY_EDGE_ROW_71_Right_71
*186 PHY_EDGE_ROW_72_Left_174
*187 PHY_EDGE_ROW_72_Right_72
*188 PHY_EDGE_ROW_73_Left_175
*189 PHY_EDGE_ROW_73_Right_73
*190 PHY_EDGE_ROW_74_Left_176
*191 PHY_EDGE_ROW_74_Right_74
*192 PHY_EDGE_ROW_75_Left_177
*193 PHY_EDGE_ROW_75_Right_75
*194 PHY_EDGE_ROW_76_Left_178
*195 PHY_EDGE_ROW_76_Right_76
*196 PHY_EDGE_ROW_77_Left_179
*197 PHY_EDGE_ROW_77_Right_77
*198 PHY_EDGE_ROW_78_Left_180
*199 PHY_EDGE_ROW_78_Right_78
*200 PHY_EDGE_ROW_79_Left_181
*201 PHY_EDGE_ROW_79_Right_79
*202 PHY_EDGE_ROW_7_Left_109
*203 PHY_EDGE_ROW_7_Right_7
*204 PHY_EDGE_ROW_80_Left_182
*205 PHY_EDGE_ROW_80_Right_80
*206 PHY_EDGE_ROW_81_Left_183
*207 PHY_EDGE_ROW_81_Right_81
*208 PHY_EDGE_ROW_82_Left_184
*209 PHY_EDGE_ROW_82_Right_82
*210 PHY_EDGE_ROW_83_Left_185
*211 PHY_EDGE_ROW_83_Right_83
*212 PHY_EDGE_ROW_84_Left_186
*213 PHY_EDGE_ROW_84_Right_84
*214 PHY_EDGE_ROW_85_Left_187
*215 PHY_EDGE_ROW_85_Right_85
*216 PHY_EDGE_ROW_86_Left_188
*217 PHY_EDGE_ROW_86_Right_86
*218 PHY_EDGE_ROW_87_Left_189
*219 PHY_EDGE_ROW_87_Right_87
*220 PHY_EDGE_ROW_88_Left_190
*221 PHY_EDGE_ROW_88_Right_88
*222 PHY_EDGE_ROW_89_Left_191
*223 PHY_EDGE_ROW_89_Right_89
*224 PHY_EDGE_ROW_8_Left_110
*225 PHY_EDGE_ROW_8_Right_8
*226 PHY_EDGE_ROW_90_Left_192
*227 PHY_EDGE_ROW_90_Right_90
*228 PHY_EDGE_ROW_91_Left_193
*229 PHY_EDGE_ROW_91_Right_91
*230 PHY_EDGE_ROW_92_Left_194
*231 PHY_EDGE_ROW_92_Right_92
*232 PHY_EDGE_ROW_93_Left_195
*233 PHY_EDGE_ROW_93_Right_93
*234 PHY_EDGE_ROW_94_Left_196
*235 PHY_EDGE_ROW_94_Right_94
*236 PHY_EDGE_ROW_95_Left_197
*237 PHY_EDGE_ROW_95_Right_95
*238 PHY_EDGE_ROW_96_Left_198
*239 PHY_EDGE_ROW_96_Right_96
*240 PHY_EDGE_ROW_97_Left_199
*241 PHY_EDGE_ROW_97_Right_97
*242 PHY_EDGE_ROW_98_Left_200
*243 PHY_EDGE_ROW_98_Right_98
*244 PHY_EDGE_ROW_99_Left_201
*245 PHY_EDGE_ROW_99_Right_99
*246 PHY_EDGE_ROW_9_Left_111
*247 PHY_EDGE_ROW_9_Right_9
*248 TAP_TAPCELL_ROW_0_204
*249 TAP_TAPCELL_ROW_0_205
*250 TAP_TAPCELL_ROW_0_206
*251 TAP_TAPCELL_ROW_0_207
*252 TAP_TAPCELL_ROW_0_208
*253 TAP_TAPCELL_ROW_0_209
*254 TAP_TAPCELL_ROW_0_210
*255 TAP_TAPCELL_ROW_0_211
*256 TAP_TAPCELL_ROW_0_212
*257 TAP_TAPCELL_ROW_0_213
*258 TAP_TAPCELL_ROW_0_214
*259 TAP_TAPCELL_ROW_0_215
*260 TAP_TAPCELL_ROW_0_216
*261 TAP_TAPCELL_ROW_0_217
*262 TAP_TAPCELL_ROW_0_218
*263 TAP_TAPCELL_ROW_0_219
*264 TAP_TAPCELL_ROW_0_220
*265 TAP_TAPCELL_ROW_0_221
*266 TAP_TAPCELL_ROW_0_222
*267 TAP_TAPCELL_ROW_0_223
*268 TAP_TAPCELL_ROW_0_224
*269 TAP_TAPCELL_ROW_0_225
*270 TAP_TAPCELL_ROW_0_226
*271 TAP_TAPCELL_ROW_0_227
*272 TAP_TAPCELL_ROW_0_228
*273 TAP_TAPCELL_ROW_0_229
*274 TAP_TAPCELL_ROW_0_230
*275 TAP_TAPCELL_ROW_0_231
*276 TAP_TAPCELL_ROW_100_1618
*277 TAP_TAPCELL_ROW_100_1619
*278 TAP_TAPCELL_ROW_100_1620
*279 TAP_TAPCELL_ROW_100_1621
*280 TAP_TAPCELL_ROW_100_1622
*281 TAP_TAPCELL_ROW_100_1623
*282 TAP_TAPCELL_ROW_100_1624
*283 TAP_TAPCELL_ROW_100_1625
*284 TAP_TAPCELL_ROW_100_1626
*285 TAP_TAPCELL_ROW_100_1627
*286 TAP_TAPCELL_ROW_100_1628
*287 TAP_TAPCELL_ROW_100_1629
*288 TAP_TAPCELL_ROW_100_1630
*289 TAP_TAPCELL_ROW_100_1631
*290 TAP_TAPCELL_ROW_101_1632
*291 TAP_TAPCELL_ROW_101_1633
*292 TAP_TAPCELL_ROW_101_1634
*293 TAP_TAPCELL_ROW_101_1635
*294 TAP_TAPCELL_ROW_101_1636
*295 TAP_TAPCELL_ROW_101_1637
*296 TAP_TAPCELL_ROW_101_1638
*297 TAP_TAPCELL_ROW_101_1639
*298 TAP_TAPCELL_ROW_101_1640
*299 TAP_TAPCELL_ROW_101_1641
*300 TAP_TAPCELL_ROW_101_1642
*301 TAP_TAPCELL_ROW_101_1643
*302 TAP_TAPCELL_ROW_101_1644
*303 TAP_TAPCELL_ROW_101_1645
*304 TAP_TAPCELL_ROW_101_1646
*305 TAP_TAPCELL_ROW_101_1647
*306 TAP_TAPCELL_ROW_101_1648
*307 TAP_TAPCELL_ROW_101_1649
*308 TAP_TAPCELL_ROW_101_1650
*309 TAP_TAPCELL_ROW_101_1651
*310 TAP_TAPCELL_ROW_101_1652
*311 TAP_TAPCELL_ROW_101_1653
*312 TAP_TAPCELL_ROW_101_1654
*313 TAP_TAPCELL_ROW_101_1655
*314 TAP_TAPCELL_ROW_101_1656
*315 TAP_TAPCELL_ROW_101_1657
*316 TAP_TAPCELL_ROW_101_1658
*317 TAP_TAPCELL_ROW_101_1659
*318 TAP_TAPCELL_ROW_10_358
*319 TAP_TAPCELL_ROW_10_359
*320 TAP_TAPCELL_ROW_10_360
*321 TAP_TAPCELL_ROW_10_361
*322 TAP_TAPCELL_ROW_10_362
*323 TAP_TAPCELL_ROW_10_363
*324 TAP_TAPCELL_ROW_10_364
*325 TAP_TAPCELL_ROW_10_365
*326 TAP_TAPCELL_ROW_10_366
*327 TAP_TAPCELL_ROW_10_367
*328 TAP_TAPCELL_ROW_10_368
*329 TAP_TAPCELL_ROW_10_369
*330 TAP_TAPCELL_ROW_10_370
*331 TAP_TAPCELL_ROW_10_371
*332 TAP_TAPCELL_ROW_11_372
*333 TAP_TAPCELL_ROW_11_373
*334 TAP_TAPCELL_ROW_11_374
*335 TAP_TAPCELL_ROW_11_375
*336 TAP_TAPCELL_ROW_11_376
*337 TAP_TAPCELL_ROW_11_377
*338 TAP_TAPCELL_ROW_11_378
*339 TAP_TAPCELL_ROW_11_379
*340 TAP_TAPCELL_ROW_11_380
*341 TAP_TAPCELL_ROW_11_381
*342 TAP_TAPCELL_ROW_11_382
*343 TAP_TAPCELL_ROW_11_383
*344 TAP_TAPCELL_ROW_11_384
*345 TAP_TAPCELL_ROW_11_385
*346 TAP_TAPCELL_ROW_12_386
*347 TAP_TAPCELL_ROW_12_387
*348 TAP_TAPCELL_ROW_12_388
*349 TAP_TAPCELL_ROW_12_389
*350 TAP_TAPCELL_ROW_12_390
*351 TAP_TAPCELL_ROW_12_391
*352 TAP_TAPCELL_ROW_12_392
*353 TAP_TAPCELL_ROW_12_393
*354 TAP_TAPCELL_ROW_12_394
*355 TAP_TAPCELL_ROW_12_395
*356 TAP_TAPCELL_ROW_12_396
*357 TAP_TAPCELL_ROW_12_397
*358 TAP_TAPCELL_ROW_12_398
*359 TAP_TAPCELL_ROW_12_399
*360 TAP_TAPCELL_ROW_13_400
*361 TAP_TAPCELL_ROW_13_401
*362 TAP_TAPCELL_ROW_13_402
*363 TAP_TAPCELL_ROW_13_403
*364 TAP_TAPCELL_ROW_13_404
*365 TAP_TAPCELL_ROW_13_405
*366 TAP_TAPCELL_ROW_13_406
*367 TAP_TAPCELL_ROW_13_407
*368 TAP_TAPCELL_ROW_13_408
*369 TAP_TAPCELL_ROW_13_409
*370 TAP_TAPCELL_ROW_13_410
*371 TAP_TAPCELL_ROW_13_411
*372 TAP_TAPCELL_ROW_13_412
*373 TAP_TAPCELL_ROW_13_413
*374 TAP_TAPCELL_ROW_14_414
*375 TAP_TAPCELL_ROW_14_415
*376 TAP_TAPCELL_ROW_14_416
*377 TAP_TAPCELL_ROW_14_417
*378 TAP_TAPCELL_ROW_14_418
*379 TAP_TAPCELL_ROW_14_419
*380 TAP_TAPCELL_ROW_14_420
*381 TAP_TAPCELL_ROW_14_421
*382 TAP_TAPCELL_ROW_14_422
*383 TAP_TAPCELL_ROW_14_423
*384 TAP_TAPCELL_ROW_14_424
*385 TAP_TAPCELL_ROW_14_425
*386 TAP_TAPCELL_ROW_14_426
*387 TAP_TAPCELL_ROW_14_427
*388 TAP_TAPCELL_ROW_15_428
*389 TAP_TAPCELL_ROW_15_429
*390 TAP_TAPCELL_ROW_15_430
*391 TAP_TAPCELL_ROW_15_431
*392 TAP_TAPCELL_ROW_15_432
*393 TAP_TAPCELL_ROW_15_433
*394 TAP_TAPCELL_ROW_15_434
*395 TAP_TAPCELL_ROW_15_435
*396 TAP_TAPCELL_ROW_15_436
*397 TAP_TAPCELL_ROW_15_437
*398 TAP_TAPCELL_ROW_15_438
*399 TAP_TAPCELL_ROW_15_439
*400 TAP_TAPCELL_ROW_15_440
*401 TAP_TAPCELL_ROW_15_441
*402 TAP_TAPCELL_ROW_16_442
*403 TAP_TAPCELL_ROW_16_443
*404 TAP_TAPCELL_ROW_16_444
*405 TAP_TAPCELL_ROW_16_445
*406 TAP_TAPCELL_ROW_16_446
*407 TAP_TAPCELL_ROW_16_447
*408 TAP_TAPCELL_ROW_16_448
*409 TAP_TAPCELL_ROW_16_449
*410 TAP_TAPCELL_ROW_16_450
*411 TAP_TAPCELL_ROW_16_451
*412 TAP_TAPCELL_ROW_16_452
*413 TAP_TAPCELL_ROW_16_453
*414 TAP_TAPCELL_ROW_16_454
*415 TAP_TAPCELL_ROW_16_455
*416 TAP_TAPCELL_ROW_17_456
*417 TAP_TAPCELL_ROW_17_457
*418 TAP_TAPCELL_ROW_17_458
*419 TAP_TAPCELL_ROW_17_459
*420 TAP_TAPCELL_ROW_17_460
*421 TAP_TAPCELL_ROW_17_461
*422 TAP_TAPCELL_ROW_17_462
*423 TAP_TAPCELL_ROW_17_463
*424 TAP_TAPCELL_ROW_17_464
*425 TAP_TAPCELL_ROW_17_465
*426 TAP_TAPCELL_ROW_17_466
*427 TAP_TAPCELL_ROW_17_467
*428 TAP_TAPCELL_ROW_17_468
*429 TAP_TAPCELL_ROW_17_469
*430 TAP_TAPCELL_ROW_18_470
*431 TAP_TAPCELL_ROW_18_471
*432 TAP_TAPCELL_ROW_18_472
*433 TAP_TAPCELL_ROW_18_473
*434 TAP_TAPCELL_ROW_18_474
*435 TAP_TAPCELL_ROW_18_475
*436 TAP_TAPCELL_ROW_18_476
*437 TAP_TAPCELL_ROW_18_477
*438 TAP_TAPCELL_ROW_18_478
*439 TAP_TAPCELL_ROW_18_479
*440 TAP_TAPCELL_ROW_18_480
*441 TAP_TAPCELL_ROW_18_481
*442 TAP_TAPCELL_ROW_18_482
*443 TAP_TAPCELL_ROW_18_483
*444 TAP_TAPCELL_ROW_19_484
*445 TAP_TAPCELL_ROW_19_485
*446 TAP_TAPCELL_ROW_19_486
*447 TAP_TAPCELL_ROW_19_487
*448 TAP_TAPCELL_ROW_19_488
*449 TAP_TAPCELL_ROW_19_489
*450 TAP_TAPCELL_ROW_19_490
*451 TAP_TAPCELL_ROW_19_491
*452 TAP_TAPCELL_ROW_19_492
*453 TAP_TAPCELL_ROW_19_493
*454 TAP_TAPCELL_ROW_19_494
*455 TAP_TAPCELL_ROW_19_495
*456 TAP_TAPCELL_ROW_19_496
*457 TAP_TAPCELL_ROW_19_497
*458 TAP_TAPCELL_ROW_1_232
*459 TAP_TAPCELL_ROW_1_233
*460 TAP_TAPCELL_ROW_1_234
*461 TAP_TAPCELL_ROW_1_235
*462 TAP_TAPCELL_ROW_1_236
*463 TAP_TAPCELL_ROW_1_237
*464 TAP_TAPCELL_ROW_1_238
*465 TAP_TAPCELL_ROW_1_239
*466 TAP_TAPCELL_ROW_1_240
*467 TAP_TAPCELL_ROW_1_241
*468 TAP_TAPCELL_ROW_1_242
*469 TAP_TAPCELL_ROW_1_243
*470 TAP_TAPCELL_ROW_1_244
*471 TAP_TAPCELL_ROW_1_245
*472 TAP_TAPCELL_ROW_20_498
*473 TAP_TAPCELL_ROW_20_499
*474 TAP_TAPCELL_ROW_20_500
*475 TAP_TAPCELL_ROW_20_501
*476 TAP_TAPCELL_ROW_20_502
*477 TAP_TAPCELL_ROW_20_503
*478 TAP_TAPCELL_ROW_20_504
*479 TAP_TAPCELL_ROW_20_505
*480 TAP_TAPCELL_ROW_20_506
*481 TAP_TAPCELL_ROW_20_507
*482 TAP_TAPCELL_ROW_20_508
*483 TAP_TAPCELL_ROW_20_509
*484 TAP_TAPCELL_ROW_20_510
*485 TAP_TAPCELL_ROW_20_511
*486 TAP_TAPCELL_ROW_21_512
*487 TAP_TAPCELL_ROW_21_513
*488 TAP_TAPCELL_ROW_21_514
*489 TAP_TAPCELL_ROW_21_515
*490 TAP_TAPCELL_ROW_21_516
*491 TAP_TAPCELL_ROW_21_517
*492 TAP_TAPCELL_ROW_21_518
*493 TAP_TAPCELL_ROW_21_519
*494 TAP_TAPCELL_ROW_21_520
*495 TAP_TAPCELL_ROW_21_521
*496 TAP_TAPCELL_ROW_21_522
*497 TAP_TAPCELL_ROW_21_523
*498 TAP_TAPCELL_ROW_21_524
*499 TAP_TAPCELL_ROW_21_525
*500 TAP_TAPCELL_ROW_22_526
*501 TAP_TAPCELL_ROW_22_527
*502 TAP_TAPCELL_ROW_22_528
*503 TAP_TAPCELL_ROW_22_529
*504 TAP_TAPCELL_ROW_22_530
*505 TAP_TAPCELL_ROW_22_531
*506 TAP_TAPCELL_ROW_22_532
*507 TAP_TAPCELL_ROW_22_533
*508 TAP_TAPCELL_ROW_22_534
*509 TAP_TAPCELL_ROW_22_535
*510 TAP_TAPCELL_ROW_22_536
*511 TAP_TAPCELL_ROW_22_537
*512 TAP_TAPCELL_ROW_22_538
*513 TAP_TAPCELL_ROW_22_539
*514 TAP_TAPCELL_ROW_23_540
*515 TAP_TAPCELL_ROW_23_541
*516 TAP_TAPCELL_ROW_23_542
*517 TAP_TAPCELL_ROW_23_543
*518 TAP_TAPCELL_ROW_23_544
*519 TAP_TAPCELL_ROW_23_545
*520 TAP_TAPCELL_ROW_23_546
*521 TAP_TAPCELL_ROW_23_547
*522 TAP_TAPCELL_ROW_23_548
*523 TAP_TAPCELL_ROW_23_549
*524 TAP_TAPCELL_ROW_23_550
*525 TAP_TAPCELL_ROW_23_551
*526 TAP_TAPCELL_ROW_23_552
*527 TAP_TAPCELL_ROW_23_553
*528 TAP_TAPCELL_ROW_24_554
*529 TAP_TAPCELL_ROW_24_555
*530 TAP_TAPCELL_ROW_24_556
*531 TAP_TAPCELL_ROW_24_557
*532 TAP_TAPCELL_ROW_24_558
*533 TAP_TAPCELL_ROW_24_559
*534 TAP_TAPCELL_ROW_24_560
*535 TAP_TAPCELL_ROW_24_561
*536 TAP_TAPCELL_ROW_24_562
*537 TAP_TAPCELL_ROW_24_563
*538 TAP_TAPCELL_ROW_24_564
*539 TAP_TAPCELL_ROW_24_565
*540 TAP_TAPCELL_ROW_24_566
*541 TAP_TAPCELL_ROW_24_567
*542 TAP_TAPCELL_ROW_25_568
*543 TAP_TAPCELL_ROW_25_569
*544 TAP_TAPCELL_ROW_25_570
*545 TAP_TAPCELL_ROW_25_571
*546 TAP_TAPCELL_ROW_25_572
*547 TAP_TAPCELL_ROW_25_573
*548 TAP_TAPCELL_ROW_25_574
*549 TAP_TAPCELL_ROW_25_575
*550 TAP_TAPCELL_ROW_25_576
*551 TAP_TAPCELL_ROW_25_577
*552 TAP_TAPCELL_ROW_25_578
*553 TAP_TAPCELL_ROW_25_579
*554 TAP_TAPCELL_ROW_25_580
*555 TAP_TAPCELL_ROW_25_581
*556 TAP_TAPCELL_ROW_26_582
*557 TAP_TAPCELL_ROW_26_583
*558 TAP_TAPCELL_ROW_26_584
*559 TAP_TAPCELL_ROW_26_585
*560 TAP_TAPCELL_ROW_26_586
*561 TAP_TAPCELL_ROW_26_587
*562 TAP_TAPCELL_ROW_26_588
*563 TAP_TAPCELL_ROW_26_589
*564 TAP_TAPCELL_ROW_26_590
*565 TAP_TAPCELL_ROW_26_591
*566 TAP_TAPCELL_ROW_26_592
*567 TAP_TAPCELL_ROW_26_593
*568 TAP_TAPCELL_ROW_26_594
*569 TAP_TAPCELL_ROW_26_595
*570 TAP_TAPCELL_ROW_27_596
*571 TAP_TAPCELL_ROW_27_597
*572 TAP_TAPCELL_ROW_27_598
*573 TAP_TAPCELL_ROW_27_599
*574 TAP_TAPCELL_ROW_27_600
*575 TAP_TAPCELL_ROW_27_601
*576 TAP_TAPCELL_ROW_27_602
*577 TAP_TAPCELL_ROW_27_603
*578 TAP_TAPCELL_ROW_27_604
*579 TAP_TAPCELL_ROW_27_605
*580 TAP_TAPCELL_ROW_27_606
*581 TAP_TAPCELL_ROW_27_607
*582 TAP_TAPCELL_ROW_27_608
*583 TAP_TAPCELL_ROW_27_609
*584 TAP_TAPCELL_ROW_28_610
*585 TAP_TAPCELL_ROW_28_611
*586 TAP_TAPCELL_ROW_28_612
*587 TAP_TAPCELL_ROW_28_613
*588 TAP_TAPCELL_ROW_28_614
*589 TAP_TAPCELL_ROW_28_615
*590 TAP_TAPCELL_ROW_28_616
*591 TAP_TAPCELL_ROW_28_617
*592 TAP_TAPCELL_ROW_28_618
*593 TAP_TAPCELL_ROW_28_619
*594 TAP_TAPCELL_ROW_28_620
*595 TAP_TAPCELL_ROW_28_621
*596 TAP_TAPCELL_ROW_28_622
*597 TAP_TAPCELL_ROW_28_623
*598 TAP_TAPCELL_ROW_29_624
*599 TAP_TAPCELL_ROW_29_625
*600 TAP_TAPCELL_ROW_29_626
*601 TAP_TAPCELL_ROW_29_627
*602 TAP_TAPCELL_ROW_29_628
*603 TAP_TAPCELL_ROW_29_629
*604 TAP_TAPCELL_ROW_29_630
*605 TAP_TAPCELL_ROW_29_631
*606 TAP_TAPCELL_ROW_29_632
*607 TAP_TAPCELL_ROW_29_633
*608 TAP_TAPCELL_ROW_29_634
*609 TAP_TAPCELL_ROW_29_635
*610 TAP_TAPCELL_ROW_29_636
*611 TAP_TAPCELL_ROW_29_637
*612 TAP_TAPCELL_ROW_2_246
*613 TAP_TAPCELL_ROW_2_247
*614 TAP_TAPCELL_ROW_2_248
*615 TAP_TAPCELL_ROW_2_249
*616 TAP_TAPCELL_ROW_2_250
*617 TAP_TAPCELL_ROW_2_251
*618 TAP_TAPCELL_ROW_2_252
*619 TAP_TAPCELL_ROW_2_253
*620 TAP_TAPCELL_ROW_2_254
*621 TAP_TAPCELL_ROW_2_255
*622 TAP_TAPCELL_ROW_2_256
*623 TAP_TAPCELL_ROW_2_257
*624 TAP_TAPCELL_ROW_2_258
*625 TAP_TAPCELL_ROW_2_259
*626 TAP_TAPCELL_ROW_30_638
*627 TAP_TAPCELL_ROW_30_639
*628 TAP_TAPCELL_ROW_30_640
*629 TAP_TAPCELL_ROW_30_641
*630 TAP_TAPCELL_ROW_30_642
*631 TAP_TAPCELL_ROW_30_643
*632 TAP_TAPCELL_ROW_30_644
*633 TAP_TAPCELL_ROW_30_645
*634 TAP_TAPCELL_ROW_30_646
*635 TAP_TAPCELL_ROW_30_647
*636 TAP_TAPCELL_ROW_30_648
*637 TAP_TAPCELL_ROW_30_649
*638 TAP_TAPCELL_ROW_30_650
*639 TAP_TAPCELL_ROW_30_651
*640 TAP_TAPCELL_ROW_31_652
*641 TAP_TAPCELL_ROW_31_653
*642 TAP_TAPCELL_ROW_31_654
*643 TAP_TAPCELL_ROW_31_655
*644 TAP_TAPCELL_ROW_31_656
*645 TAP_TAPCELL_ROW_31_657
*646 TAP_TAPCELL_ROW_31_658
*647 TAP_TAPCELL_ROW_31_659
*648 TAP_TAPCELL_ROW_31_660
*649 TAP_TAPCELL_ROW_31_661
*650 TAP_TAPCELL_ROW_31_662
*651 TAP_TAPCELL_ROW_31_663
*652 TAP_TAPCELL_ROW_31_664
*653 TAP_TAPCELL_ROW_31_665
*654 TAP_TAPCELL_ROW_32_666
*655 TAP_TAPCELL_ROW_32_667
*656 TAP_TAPCELL_ROW_32_668
*657 TAP_TAPCELL_ROW_32_669
*658 TAP_TAPCELL_ROW_32_670
*659 TAP_TAPCELL_ROW_32_671
*660 TAP_TAPCELL_ROW_32_672
*661 TAP_TAPCELL_ROW_32_673
*662 TAP_TAPCELL_ROW_32_674
*663 TAP_TAPCELL_ROW_32_675
*664 TAP_TAPCELL_ROW_32_676
*665 TAP_TAPCELL_ROW_32_677
*666 TAP_TAPCELL_ROW_32_678
*667 TAP_TAPCELL_ROW_32_679
*668 TAP_TAPCELL_ROW_33_680
*669 TAP_TAPCELL_ROW_33_681
*670 TAP_TAPCELL_ROW_33_682
*671 TAP_TAPCELL_ROW_33_683
*672 TAP_TAPCELL_ROW_33_684
*673 TAP_TAPCELL_ROW_33_685
*674 TAP_TAPCELL_ROW_33_686
*675 TAP_TAPCELL_ROW_33_687
*676 TAP_TAPCELL_ROW_33_688
*677 TAP_TAPCELL_ROW_33_689
*678 TAP_TAPCELL_ROW_33_690
*679 TAP_TAPCELL_ROW_33_691
*680 TAP_TAPCELL_ROW_33_692
*681 TAP_TAPCELL_ROW_33_693
*682 TAP_TAPCELL_ROW_34_694
*683 TAP_TAPCELL_ROW_34_695
*684 TAP_TAPCELL_ROW_34_696
*685 TAP_TAPCELL_ROW_34_697
*686 TAP_TAPCELL_ROW_34_698
*687 TAP_TAPCELL_ROW_34_699
*688 TAP_TAPCELL_ROW_34_700
*689 TAP_TAPCELL_ROW_34_701
*690 TAP_TAPCELL_ROW_34_702
*691 TAP_TAPCELL_ROW_34_703
*692 TAP_TAPCELL_ROW_34_704
*693 TAP_TAPCELL_ROW_34_705
*694 TAP_TAPCELL_ROW_34_706
*695 TAP_TAPCELL_ROW_34_707
*696 TAP_TAPCELL_ROW_35_708
*697 TAP_TAPCELL_ROW_35_709
*698 TAP_TAPCELL_ROW_35_710
*699 TAP_TAPCELL_ROW_35_711
*700 TAP_TAPCELL_ROW_35_712
*701 TAP_TAPCELL_ROW_35_713
*702 TAP_TAPCELL_ROW_35_714
*703 TAP_TAPCELL_ROW_35_715
*704 TAP_TAPCELL_ROW_35_716
*705 TAP_TAPCELL_ROW_35_717
*706 TAP_TAPCELL_ROW_35_718
*707 TAP_TAPCELL_ROW_35_719
*708 TAP_TAPCELL_ROW_35_720
*709 TAP_TAPCELL_ROW_35_721
*710 TAP_TAPCELL_ROW_36_722
*711 TAP_TAPCELL_ROW_36_723
*712 TAP_TAPCELL_ROW_36_724
*713 TAP_TAPCELL_ROW_36_725
*714 TAP_TAPCELL_ROW_36_726
*715 TAP_TAPCELL_ROW_36_727
*716 TAP_TAPCELL_ROW_36_728
*717 TAP_TAPCELL_ROW_36_729
*718 TAP_TAPCELL_ROW_36_730
*719 TAP_TAPCELL_ROW_36_731
*720 TAP_TAPCELL_ROW_36_732
*721 TAP_TAPCELL_ROW_36_733
*722 TAP_TAPCELL_ROW_36_734
*723 TAP_TAPCELL_ROW_36_735
*724 TAP_TAPCELL_ROW_37_736
*725 TAP_TAPCELL_ROW_37_737
*726 TAP_TAPCELL_ROW_37_738
*727 TAP_TAPCELL_ROW_37_739
*728 TAP_TAPCELL_ROW_37_740
*729 TAP_TAPCELL_ROW_37_741
*730 TAP_TAPCELL_ROW_37_742
*731 TAP_TAPCELL_ROW_37_743
*732 TAP_TAPCELL_ROW_37_744
*733 TAP_TAPCELL_ROW_37_745
*734 TAP_TAPCELL_ROW_37_746
*735 TAP_TAPCELL_ROW_37_747
*736 TAP_TAPCELL_ROW_37_748
*737 TAP_TAPCELL_ROW_37_749
*738 TAP_TAPCELL_ROW_38_750
*739 TAP_TAPCELL_ROW_38_751
*740 TAP_TAPCELL_ROW_38_752
*741 TAP_TAPCELL_ROW_38_753
*742 TAP_TAPCELL_ROW_38_754
*743 TAP_TAPCELL_ROW_38_755
*744 TAP_TAPCELL_ROW_38_756
*745 TAP_TAPCELL_ROW_38_757
*746 TAP_TAPCELL_ROW_38_758
*747 TAP_TAPCELL_ROW_38_759
*748 TAP_TAPCELL_ROW_38_760
*749 TAP_TAPCELL_ROW_38_761
*750 TAP_TAPCELL_ROW_38_762
*751 TAP_TAPCELL_ROW_38_763
*752 TAP_TAPCELL_ROW_39_764
*753 TAP_TAPCELL_ROW_39_765
*754 TAP_TAPCELL_ROW_39_766
*755 TAP_TAPCELL_ROW_39_767
*756 TAP_TAPCELL_ROW_39_768
*757 TAP_TAPCELL_ROW_39_769
*758 TAP_TAPCELL_ROW_39_770
*759 TAP_TAPCELL_ROW_39_771
*760 TAP_TAPCELL_ROW_39_772
*761 TAP_TAPCELL_ROW_39_773
*762 TAP_TAPCELL_ROW_39_774
*763 TAP_TAPCELL_ROW_39_775
*764 TAP_TAPCELL_ROW_39_776
*765 TAP_TAPCELL_ROW_39_777
*766 TAP_TAPCELL_ROW_3_260
*767 TAP_TAPCELL_ROW_3_261
*768 TAP_TAPCELL_ROW_3_262
*769 TAP_TAPCELL_ROW_3_263
*770 TAP_TAPCELL_ROW_3_264
*771 TAP_TAPCELL_ROW_3_265
*772 TAP_TAPCELL_ROW_3_266
*773 TAP_TAPCELL_ROW_3_267
*774 TAP_TAPCELL_ROW_3_268
*775 TAP_TAPCELL_ROW_3_269
*776 TAP_TAPCELL_ROW_3_270
*777 TAP_TAPCELL_ROW_3_271
*778 TAP_TAPCELL_ROW_3_272
*779 TAP_TAPCELL_ROW_3_273
*780 TAP_TAPCELL_ROW_40_778
*781 TAP_TAPCELL_ROW_40_779
*782 TAP_TAPCELL_ROW_40_780
*783 TAP_TAPCELL_ROW_40_781
*784 TAP_TAPCELL_ROW_40_782
*785 TAP_TAPCELL_ROW_40_783
*786 TAP_TAPCELL_ROW_40_784
*787 TAP_TAPCELL_ROW_40_785
*788 TAP_TAPCELL_ROW_40_786
*789 TAP_TAPCELL_ROW_40_787
*790 TAP_TAPCELL_ROW_40_788
*791 TAP_TAPCELL_ROW_40_789
*792 TAP_TAPCELL_ROW_40_790
*793 TAP_TAPCELL_ROW_40_791
*794 TAP_TAPCELL_ROW_41_792
*795 TAP_TAPCELL_ROW_41_793
*796 TAP_TAPCELL_ROW_41_794
*797 TAP_TAPCELL_ROW_41_795
*798 TAP_TAPCELL_ROW_41_796
*799 TAP_TAPCELL_ROW_41_797
*800 TAP_TAPCELL_ROW_41_798
*801 TAP_TAPCELL_ROW_41_799
*802 TAP_TAPCELL_ROW_41_800
*803 TAP_TAPCELL_ROW_41_801
*804 TAP_TAPCELL_ROW_41_802
*805 TAP_TAPCELL_ROW_41_803
*806 TAP_TAPCELL_ROW_41_804
*807 TAP_TAPCELL_ROW_41_805
*808 TAP_TAPCELL_ROW_42_806
*809 TAP_TAPCELL_ROW_42_807
*810 TAP_TAPCELL_ROW_42_808
*811 TAP_TAPCELL_ROW_42_809
*812 TAP_TAPCELL_ROW_42_810
*813 TAP_TAPCELL_ROW_42_811
*814 TAP_TAPCELL_ROW_42_812
*815 TAP_TAPCELL_ROW_42_813
*816 TAP_TAPCELL_ROW_42_814
*817 TAP_TAPCELL_ROW_42_815
*818 TAP_TAPCELL_ROW_42_816
*819 TAP_TAPCELL_ROW_42_817
*820 TAP_TAPCELL_ROW_42_818
*821 TAP_TAPCELL_ROW_42_819
*822 TAP_TAPCELL_ROW_43_820
*823 TAP_TAPCELL_ROW_43_821
*824 TAP_TAPCELL_ROW_43_822
*825 TAP_TAPCELL_ROW_43_823
*826 TAP_TAPCELL_ROW_43_824
*827 TAP_TAPCELL_ROW_43_825
*828 TAP_TAPCELL_ROW_43_826
*829 TAP_TAPCELL_ROW_43_827
*830 TAP_TAPCELL_ROW_43_828
*831 TAP_TAPCELL_ROW_43_829
*832 TAP_TAPCELL_ROW_43_830
*833 TAP_TAPCELL_ROW_43_831
*834 TAP_TAPCELL_ROW_43_832
*835 TAP_TAPCELL_ROW_43_833
*836 TAP_TAPCELL_ROW_44_834
*837 TAP_TAPCELL_ROW_44_835
*838 TAP_TAPCELL_ROW_44_836
*839 TAP_TAPCELL_ROW_44_837
*840 TAP_TAPCELL_ROW_44_838
*841 TAP_TAPCELL_ROW_44_839
*842 TAP_TAPCELL_ROW_44_840
*843 TAP_TAPCELL_ROW_44_841
*844 TAP_TAPCELL_ROW_44_842
*845 TAP_TAPCELL_ROW_44_843
*846 TAP_TAPCELL_ROW_44_844
*847 TAP_TAPCELL_ROW_44_845
*848 TAP_TAPCELL_ROW_44_846
*849 TAP_TAPCELL_ROW_44_847
*850 TAP_TAPCELL_ROW_45_848
*851 TAP_TAPCELL_ROW_45_849
*852 TAP_TAPCELL_ROW_45_850
*853 TAP_TAPCELL_ROW_45_851
*854 TAP_TAPCELL_ROW_45_852
*855 TAP_TAPCELL_ROW_45_853
*856 TAP_TAPCELL_ROW_45_854
*857 TAP_TAPCELL_ROW_45_855
*858 TAP_TAPCELL_ROW_45_856
*859 TAP_TAPCELL_ROW_45_857
*860 TAP_TAPCELL_ROW_45_858
*861 TAP_TAPCELL_ROW_45_859
*862 TAP_TAPCELL_ROW_45_860
*863 TAP_TAPCELL_ROW_45_861
*864 TAP_TAPCELL_ROW_46_862
*865 TAP_TAPCELL_ROW_46_863
*866 TAP_TAPCELL_ROW_46_864
*867 TAP_TAPCELL_ROW_46_865
*868 TAP_TAPCELL_ROW_46_866
*869 TAP_TAPCELL_ROW_46_867
*870 TAP_TAPCELL_ROW_46_868
*871 TAP_TAPCELL_ROW_46_869
*872 TAP_TAPCELL_ROW_46_870
*873 TAP_TAPCELL_ROW_46_871
*874 TAP_TAPCELL_ROW_46_872
*875 TAP_TAPCELL_ROW_46_873
*876 TAP_TAPCELL_ROW_46_874
*877 TAP_TAPCELL_ROW_46_875
*878 TAP_TAPCELL_ROW_47_876
*879 TAP_TAPCELL_ROW_47_877
*880 TAP_TAPCELL_ROW_47_878
*881 TAP_TAPCELL_ROW_47_879
*882 TAP_TAPCELL_ROW_47_880
*883 TAP_TAPCELL_ROW_47_881
*884 TAP_TAPCELL_ROW_47_882
*885 TAP_TAPCELL_ROW_47_883
*886 TAP_TAPCELL_ROW_47_884
*887 TAP_TAPCELL_ROW_47_885
*888 TAP_TAPCELL_ROW_47_886
*889 TAP_TAPCELL_ROW_47_887
*890 TAP_TAPCELL_ROW_47_888
*891 TAP_TAPCELL_ROW_47_889
*892 TAP_TAPCELL_ROW_48_890
*893 TAP_TAPCELL_ROW_48_891
*894 TAP_TAPCELL_ROW_48_892
*895 TAP_TAPCELL_ROW_48_893
*896 TAP_TAPCELL_ROW_48_894
*897 TAP_TAPCELL_ROW_48_895
*898 TAP_TAPCELL_ROW_48_896
*899 TAP_TAPCELL_ROW_48_897
*900 TAP_TAPCELL_ROW_48_898
*901 TAP_TAPCELL_ROW_48_899
*902 TAP_TAPCELL_ROW_48_900
*903 TAP_TAPCELL_ROW_48_901
*904 TAP_TAPCELL_ROW_48_902
*905 TAP_TAPCELL_ROW_48_903
*906 TAP_TAPCELL_ROW_49_904
*907 TAP_TAPCELL_ROW_49_905
*908 TAP_TAPCELL_ROW_49_906
*909 TAP_TAPCELL_ROW_49_907
*910 TAP_TAPCELL_ROW_49_908
*911 TAP_TAPCELL_ROW_49_909
*912 TAP_TAPCELL_ROW_49_910
*913 TAP_TAPCELL_ROW_49_911
*914 TAP_TAPCELL_ROW_49_912
*915 TAP_TAPCELL_ROW_49_913
*916 TAP_TAPCELL_ROW_49_914
*917 TAP_TAPCELL_ROW_49_915
*918 TAP_TAPCELL_ROW_49_916
*919 TAP_TAPCELL_ROW_49_917
*920 TAP_TAPCELL_ROW_4_274
*921 TAP_TAPCELL_ROW_4_275
*922 TAP_TAPCELL_ROW_4_276
*923 TAP_TAPCELL_ROW_4_277
*924 TAP_TAPCELL_ROW_4_278
*925 TAP_TAPCELL_ROW_4_279
*926 TAP_TAPCELL_ROW_4_280
*927 TAP_TAPCELL_ROW_4_281
*928 TAP_TAPCELL_ROW_4_282
*929 TAP_TAPCELL_ROW_4_283
*930 TAP_TAPCELL_ROW_4_284
*931 TAP_TAPCELL_ROW_4_285
*932 TAP_TAPCELL_ROW_4_286
*933 TAP_TAPCELL_ROW_4_287
*934 TAP_TAPCELL_ROW_50_918
*935 TAP_TAPCELL_ROW_50_919
*936 TAP_TAPCELL_ROW_50_920
*937 TAP_TAPCELL_ROW_50_921
*938 TAP_TAPCELL_ROW_50_922
*939 TAP_TAPCELL_ROW_50_923
*940 TAP_TAPCELL_ROW_50_924
*941 TAP_TAPCELL_ROW_50_925
*942 TAP_TAPCELL_ROW_50_926
*943 TAP_TAPCELL_ROW_50_927
*944 TAP_TAPCELL_ROW_50_928
*945 TAP_TAPCELL_ROW_50_929
*946 TAP_TAPCELL_ROW_50_930
*947 TAP_TAPCELL_ROW_50_931
*948 TAP_TAPCELL_ROW_51_932
*949 TAP_TAPCELL_ROW_51_933
*950 TAP_TAPCELL_ROW_51_934
*951 TAP_TAPCELL_ROW_51_935
*952 TAP_TAPCELL_ROW_51_936
*953 TAP_TAPCELL_ROW_51_937
*954 TAP_TAPCELL_ROW_51_938
*955 TAP_TAPCELL_ROW_51_939
*956 TAP_TAPCELL_ROW_51_940
*957 TAP_TAPCELL_ROW_51_941
*958 TAP_TAPCELL_ROW_51_942
*959 TAP_TAPCELL_ROW_51_943
*960 TAP_TAPCELL_ROW_51_944
*961 TAP_TAPCELL_ROW_51_945
*962 TAP_TAPCELL_ROW_52_946
*963 TAP_TAPCELL_ROW_52_947
*964 TAP_TAPCELL_ROW_52_948
*965 TAP_TAPCELL_ROW_52_949
*966 TAP_TAPCELL_ROW_52_950
*967 TAP_TAPCELL_ROW_52_951
*968 TAP_TAPCELL_ROW_52_952
*969 TAP_TAPCELL_ROW_52_953
*970 TAP_TAPCELL_ROW_52_954
*971 TAP_TAPCELL_ROW_52_955
*972 TAP_TAPCELL_ROW_52_956
*973 TAP_TAPCELL_ROW_52_957
*974 TAP_TAPCELL_ROW_52_958
*975 TAP_TAPCELL_ROW_52_959
*976 TAP_TAPCELL_ROW_53_960
*977 TAP_TAPCELL_ROW_53_961
*978 TAP_TAPCELL_ROW_53_962
*979 TAP_TAPCELL_ROW_53_963
*980 TAP_TAPCELL_ROW_53_964
*981 TAP_TAPCELL_ROW_53_965
*982 TAP_TAPCELL_ROW_53_966
*983 TAP_TAPCELL_ROW_53_967
*984 TAP_TAPCELL_ROW_53_968
*985 TAP_TAPCELL_ROW_53_969
*986 TAP_TAPCELL_ROW_53_970
*987 TAP_TAPCELL_ROW_53_971
*988 TAP_TAPCELL_ROW_53_972
*989 TAP_TAPCELL_ROW_53_973
*990 TAP_TAPCELL_ROW_54_974
*991 TAP_TAPCELL_ROW_54_975
*992 TAP_TAPCELL_ROW_54_976
*993 TAP_TAPCELL_ROW_54_977
*994 TAP_TAPCELL_ROW_54_978
*995 TAP_TAPCELL_ROW_54_979
*996 TAP_TAPCELL_ROW_54_980
*997 TAP_TAPCELL_ROW_54_981
*998 TAP_TAPCELL_ROW_54_982
*999 TAP_TAPCELL_ROW_54_983
*1000 TAP_TAPCELL_ROW_54_984
*1001 TAP_TAPCELL_ROW_54_985
*1002 TAP_TAPCELL_ROW_54_986
*1003 TAP_TAPCELL_ROW_54_987
*1004 TAP_TAPCELL_ROW_55_1000
*1005 TAP_TAPCELL_ROW_55_1001
*1006 TAP_TAPCELL_ROW_55_988
*1007 TAP_TAPCELL_ROW_55_989
*1008 TAP_TAPCELL_ROW_55_990
*1009 TAP_TAPCELL_ROW_55_991
*1010 TAP_TAPCELL_ROW_55_992
*1011 TAP_TAPCELL_ROW_55_993
*1012 TAP_TAPCELL_ROW_55_994
*1013 TAP_TAPCELL_ROW_55_995
*1014 TAP_TAPCELL_ROW_55_996
*1015 TAP_TAPCELL_ROW_55_997
*1016 TAP_TAPCELL_ROW_55_998
*1017 TAP_TAPCELL_ROW_55_999
*1018 TAP_TAPCELL_ROW_56_1002
*1019 TAP_TAPCELL_ROW_56_1003
*1020 TAP_TAPCELL_ROW_56_1004
*1021 TAP_TAPCELL_ROW_56_1005
*1022 TAP_TAPCELL_ROW_56_1006
*1023 TAP_TAPCELL_ROW_56_1007
*1024 TAP_TAPCELL_ROW_56_1008
*1025 TAP_TAPCELL_ROW_56_1009
*1026 TAP_TAPCELL_ROW_56_1010
*1027 TAP_TAPCELL_ROW_56_1011
*1028 TAP_TAPCELL_ROW_56_1012
*1029 TAP_TAPCELL_ROW_56_1013
*1030 TAP_TAPCELL_ROW_56_1014
*1031 TAP_TAPCELL_ROW_56_1015
*1032 TAP_TAPCELL_ROW_57_1016
*1033 TAP_TAPCELL_ROW_57_1017
*1034 TAP_TAPCELL_ROW_57_1018
*1035 TAP_TAPCELL_ROW_57_1019
*1036 TAP_TAPCELL_ROW_57_1020
*1037 TAP_TAPCELL_ROW_57_1021
*1038 TAP_TAPCELL_ROW_57_1022
*1039 TAP_TAPCELL_ROW_57_1023
*1040 TAP_TAPCELL_ROW_57_1024
*1041 TAP_TAPCELL_ROW_57_1025
*1042 TAP_TAPCELL_ROW_57_1026
*1043 TAP_TAPCELL_ROW_57_1027
*1044 TAP_TAPCELL_ROW_57_1028
*1045 TAP_TAPCELL_ROW_57_1029
*1046 TAP_TAPCELL_ROW_58_1030
*1047 TAP_TAPCELL_ROW_58_1031
*1048 TAP_TAPCELL_ROW_58_1032
*1049 TAP_TAPCELL_ROW_58_1033
*1050 TAP_TAPCELL_ROW_58_1034
*1051 TAP_TAPCELL_ROW_58_1035
*1052 TAP_TAPCELL_ROW_58_1036
*1053 TAP_TAPCELL_ROW_58_1037
*1054 TAP_TAPCELL_ROW_58_1038
*1055 TAP_TAPCELL_ROW_58_1039
*1056 TAP_TAPCELL_ROW_58_1040
*1057 TAP_TAPCELL_ROW_58_1041
*1058 TAP_TAPCELL_ROW_58_1042
*1059 TAP_TAPCELL_ROW_58_1043
*1060 TAP_TAPCELL_ROW_59_1044
*1061 TAP_TAPCELL_ROW_59_1045
*1062 TAP_TAPCELL_ROW_59_1046
*1063 TAP_TAPCELL_ROW_59_1047
*1064 TAP_TAPCELL_ROW_59_1048
*1065 TAP_TAPCELL_ROW_59_1049
*1066 TAP_TAPCELL_ROW_59_1050
*1067 TAP_TAPCELL_ROW_59_1051
*1068 TAP_TAPCELL_ROW_59_1052
*1069 TAP_TAPCELL_ROW_59_1053
*1070 TAP_TAPCELL_ROW_59_1054